
  EPA STORM WATER MANAGEMENT MODEL - VERSION 5.2 (Build 5.2.4)
  PYSWMM TOOLKIT API - VERSION v1.0 (2023-11-27)
  ------------------------------------------------------------

  WARNING 04: minimum elevation drop used for Conduit Cond1870
  WARNING 04: minimum elevation drop used for Conduit Cond2113
  WARNING 04: minimum elevation drop used for Conduit Cond2141
  WARNING 04: minimum elevation drop used for Conduit Cond2179
  WARNING 04: minimum elevation drop used for Conduit Cond2441
  WARNING 04: minimum elevation drop used for Conduit Cond2635
  WARNING 04: minimum elevation drop used for Conduit Cond2814
  WARNING 04: minimum elevation drop used for Conduit Cond2892
  WARNING 04: minimum elevation drop used for Conduit Cond2956
  WARNING 04: minimum elevation drop used for Conduit Cond3242
  WARNING 04: minimum elevation drop used for Conduit Cond3315
  WARNING 04: minimum elevation drop used for Conduit Cond3316
  WARNING 04: minimum elevation drop used for Conduit Cond3362
  WARNING 04: minimum elevation drop used for Conduit Cond3497
  WARNING 04: minimum elevation drop used for Conduit Cond3733
  WARNING 04: minimum elevation drop used for Conduit Cond3734
  WARNING 04: minimum elevation drop used for Conduit Cond3796
  WARNING 04: minimum elevation drop used for Conduit Cond3797
  WARNING 04: minimum elevation drop used for Conduit Cond3986
  WARNING 04: minimum elevation drop used for Conduit Cond4187
  WARNING 04: minimum elevation drop used for Conduit Cond4354
  WARNING 04: minimum elevation drop used for Conduit Cond4510
  
  ****************
  Analysis Options
  ****************
  Flow Units ............... CMS
  Process Models:
    Rainfall/Runoff ........ YES
    RDII ................... NO
    Snowmelt ............... NO
    Groundwater ............ NO
    Flow Routing ........... YES
    Ponding Allowed ........ YES
    Water Quality .......... NO
  Infiltration Method ...... HORTON
  Flow Routing Method ...... DYNWAVE
  Surcharge Method ......... EXTRAN
  Starting Date ............ 07/21/2023 00:00:00
  Ending Date .............. 07/24/2023 00:00:00
  Antecedent Dry Days ...... 0.0
  Report Time Step ......... 01:00:00
  Wet Time Step ............ 00:01:00
  Dry Time Step ............ 00:01:00
  Routing Time Step ........ 5.00 sec
  Variable Time Step ....... YES
  Maximum Trials ........... 8
  Number of Threads ........ 1
  Head Tolerance ........... 0.001500 m
  
  
  **************************        Volume         Depth
  Runoff Quantity Continuity     hectare-m            mm
  **************************     ---------       -------
  Total Precipitation ......         3.278       103.100
  Evaporation Loss .........         0.000         0.000
  Infiltration Loss ........         0.239         7.508
  Surface Runoff ...........         2.870        90.252
  Final Storage ............         0.170         5.343
  Continuity Error (%) .....        -0.002
  
  
  **************************        Volume        Volume
  Flow Routing Continuity        hectare-m      10^6 ltr
  **************************     ---------     ---------
  Dry Weather Inflow .......         0.000         0.000
  Wet Weather Inflow .......         2.870        28.696
  Groundwater Inflow .......         0.000         0.000
  RDII Inflow ..............         0.000         0.000
  External Inflow ..........         0.000         0.000
  External Outflow .........         2.369        23.686
  Flooding Loss ............         0.498         4.982
  Evaporation Loss .........         0.000         0.000
  Exfiltration Loss ........         0.000         0.000
  Initial Stored Volume ....         0.000         0.000
  Final Stored Volume ......         0.006         0.063
  Continuity Error (%) .....        -0.123
  
  
  *************************
  Highest Continuity Errors
  *************************
  Node Y031230 (-1.99%)
  Node Y037063 (1.05%)
  
  
  ***************************
  Time-Step Critical Elements
  ***************************
  Link Cond3150 (59.73%)
  Link Cond2611 (23.03%)
  Link Cond4436 (6.62%)
  Link Cond2954 (3.54%)
  Link Cond1632 (3.27%)
  
  
  ********************************
  Highest Flow Instability Indexes
  ********************************
  Link Cond4436 (26)
  Link Cond3150 (21)
  Link Cond1653 (17)
  Link Cond2954 (17)
  Link Cond2611 (16)
  
  
  *********************************
  Most Frequent Nonconverging Nodes
  *********************************
  Node PSK (8.48%)
  Node Y036038 (3.10%)
  Node Y031393 (1.60%)
  Node Y031829 (0.95%)
  Node Y031068 (0.72%)
  
  
  *************************
  Routing Time Step Summary
  *************************
  Minimum Time Step           :     0.50 sec
  Average Time Step           :     1.45 sec
  Maximum Time Step           :     5.00 sec
  % of Time in Steady State   :     0.00
  Average Iterations per Step :     2.84
  % of Steps Not Converging   :     8.48
  Time Step Frequencies       :
      5.000 -  3.155 sec      :     5.48 %
      3.155 -  1.991 sec      :    17.43 %
      1.991 -  1.256 sec      :    19.74 %
      1.256 -  0.792 sec      :    30.91 %
      0.792 -  0.500 sec      :    26.43 %
  
  
  ***************************
  Subcatchment Runoff Summary
  ***************************
  
  ------------------------------------------------------------------------------------------------------------------------------
                            Total      Total      Total      Total     Imperv       Perv      Total       Total     Peak  Runoff
                           Precip      Runon       Evap      Infil     Runoff     Runoff     Runoff      Runoff   Runoff   Coeff
  Subcatchment                 mm         mm         mm         mm         mm         mm         mm    10^6 ltr      CMS
  ------------------------------------------------------------------------------------------------------------------------------
  sub1                     103.10       0.00       0.00       7.37      87.56       2.94      90.50        0.18     0.02   0.878
  sub2                     103.10       0.00       0.00       7.43      87.44       2.88      90.33        0.13     0.01   0.876
  sub3                     103.10       0.00       0.00       7.39      87.52       2.92      90.44        0.10     0.01   0.877
  sub4                     103.10       0.00       0.00       7.39      87.53       2.92      90.46        0.10     0.01   0.877
  sub5                     103.10       0.00       0.00       7.43      87.43       2.88      90.31        0.12     0.01   0.876
  sub6                     103.10       0.00       0.00       7.43      87.45       2.88      90.33        0.11     0.01   0.876
  sub7                     103.10       0.00       0.00       7.41      87.48       2.90      90.38        0.13     0.01   0.877
  sub8                     103.10       0.00       0.00       7.40      87.50       2.91      90.42        0.18     0.02   0.877
  sub9                     103.10       0.00       0.00       7.38      87.55       2.94      90.49        0.10     0.01   0.878
  sub10                    103.10       0.00       0.00       7.45      87.39       2.86      90.26        0.16     0.01   0.875
  sub11                    103.10       0.00       0.00       7.44      87.41       2.87      90.28        0.21     0.02   0.876
  sub12                    103.10       0.00       0.00       7.44      87.41       2.87      90.28        0.21     0.02   0.876
  sub13                    103.10       0.00       0.00       7.45      87.38       2.86      90.23        0.22     0.02   0.875
  sub14                    103.10       0.00       0.00       7.39      87.52       2.92      90.44        0.14     0.01   0.877
  sub15                    103.10       0.00       0.00       7.40      87.51       2.91      90.43        0.15     0.01   0.877
  sub16                    103.10       0.00       0.00       7.44      87.42       2.87      90.29        0.20     0.02   0.876
  sub17                    103.10       0.00       0.00       7.47      87.33       2.84      90.18        0.15     0.01   0.875
  sub18                    103.10       0.00       0.00       7.39      87.53       2.92      90.45        0.12     0.01   0.877
  sub19                    103.10       0.00       0.00       7.38      87.55       2.93      90.48        0.06     0.01   0.878
  sub20                    103.10       0.00       0.00       7.38      87.55       2.93      90.49        0.12     0.01   0.878
  sub21                    103.10       0.00       0.00       7.45      87.38       2.86      90.24        0.26     0.02   0.875
  sub22                    103.10       0.00       0.00       7.51      87.21       2.80      90.01        0.34     0.03   0.873
  sub23                    103.10       0.00       0.00       7.44      87.42       2.87      90.29        0.13     0.01   0.876
  sub24                    103.10       0.00       0.00       7.57      86.97       2.74      89.71        0.41     0.03   0.870
  sub25                    103.10       0.00       0.00       7.39      87.52       2.92      90.44        0.11     0.01   0.877
  sub26                    103.10       0.00       0.00       7.27      87.68       3.04      90.72        0.01     0.00   0.880
  sub27                    103.10       0.00       0.00       7.37      87.57       2.94      90.51        0.10     0.01   0.878
  sub28                    103.10       0.00       0.00       7.41      87.48       2.90      90.37        0.09     0.01   0.877
  sub29                    103.10       0.00       0.00       7.40      87.50       2.91      90.41        0.15     0.01   0.877
  sub30                    103.10       0.00       0.00       7.46      87.35       2.85      90.20        0.31     0.03   0.875
  sub31                    103.10       0.00       0.00       7.45      87.40       2.87      90.26        0.15     0.01   0.875
  sub32                    103.10       0.00       0.00       7.39      87.54       2.93      90.46        0.11     0.01   0.877
  sub33                    103.10       0.00       0.00       7.51      87.19       2.80      89.99        0.37     0.03   0.873
  sub34                    103.10       0.00       0.00       7.49      87.28       2.83      90.11        0.15     0.01   0.874
  sub35                    103.10       0.00       0.00       7.36      87.58       2.95      90.53        0.07     0.01   0.878
  sub36                    103.10       0.00       0.00       7.48      87.31       2.84      90.15        0.24     0.02   0.874
  sub37                    103.10       0.00       0.00       7.39      87.53       2.92      90.45        0.09     0.01   0.877
  sub38                    103.10       0.00       0.00       7.43      87.43       2.88      90.31        0.16     0.01   0.876
  sub39                    103.10       0.00       0.00       7.45      87.39       2.86      90.25        0.21     0.02   0.875
  sub40                    103.10       0.00       0.00       7.41      87.48       2.90      90.38        0.22     0.02   0.877
  sub41                    103.10       0.00       0.00       7.43      87.45       2.89      90.33        0.23     0.02   0.876
  sub42                    103.10       0.00       0.00       7.47      87.33       2.84      90.18        0.22     0.02   0.875
  sub43                    103.10       0.00       0.00       7.54      87.09       2.77      89.87        0.25     0.02   0.872
  sub44                    103.10       0.00       0.00       7.34      87.61       2.97      90.58        0.05     0.01   0.879
  sub45                    103.10       0.00       0.00       7.30      87.65       3.01      90.66        0.04     0.01   0.879
  sub46                    103.10       0.00       0.00       7.45      87.40       2.87      90.26        0.15     0.01   0.875
  sub47                    103.10       0.00       0.00       7.41      87.48       2.90      90.38        0.12     0.01   0.877
  sub48                    103.10       0.00       0.00       7.41      87.48       2.90      90.38        0.19     0.02   0.877
  sub49                    103.10       0.00       0.00       7.34      87.61       2.97      90.59        0.07     0.01   0.879
  sub50                    103.10       0.00       0.00       7.40      87.50       2.91      90.41        0.11     0.01   0.877
  sub51                    103.10       0.00       0.00       8.58      85.98       3.30      89.28        0.13     0.01   0.866
  sub52                    103.10       0.00       0.00       7.48      87.42       2.98      90.39        0.09     0.01   0.877
  sub53                    103.10       0.00       0.00       7.47      87.34       2.84      90.18        0.25     0.02   0.875
  sub54                    103.10       0.00       0.00       7.36      87.58       2.95      90.53        0.11     0.01   0.878
  sub55                    103.10       0.00       0.00       7.28      87.67       3.03      90.70        0.02     0.00   0.880
  sub56                    103.10       0.00       0.00       7.44      87.42       2.87      90.29        0.29     0.03   0.876
  sub57                    103.10       0.00       0.00       7.37      87.57       2.94      90.51        0.14     0.02   0.878
  sub58                    103.10       0.00       0.00       7.43      87.43       2.88      90.31        0.18     0.02   0.876
  sub59                    103.10       0.00       0.00       7.38      87.55       2.93      90.48        0.12     0.01   0.878
  sub60                    103.10       0.00       0.00       7.33      87.63       2.98      90.61        0.05     0.01   0.879
  sub61                    103.10       0.00       0.00       7.40      87.50       2.91      90.41        0.15     0.01   0.877
  sub62                    103.10       0.00       0.00       7.31      87.64       3.00      90.64        0.03     0.00   0.879
  sub63                    103.10       0.00       0.00       7.29      87.66       3.02      90.68        0.02     0.00   0.880
  sub64                    103.10       0.00       0.00       7.37      87.57       2.94      90.51        0.11     0.01   0.878
  sub65                    103.10       0.00       0.00       7.35      87.60       2.96      90.56        0.09     0.01   0.878
  sub66                    103.10       0.00       0.00       7.29      87.67       3.03      90.70        0.03     0.00   0.880
  sub67                    103.10       0.00       0.00       7.32      87.64       2.99      90.63        0.04     0.01   0.879
  sub68                    103.10       0.00       0.00       7.30      87.66       3.02      90.68        0.03     0.00   0.880
  sub69                    103.10       0.00       0.00       7.33      87.63       2.98      90.61        0.05     0.01   0.879
  sub70                    103.10       0.00       0.00       7.34      87.61       2.97      90.58        0.10     0.01   0.879
  sub71                    103.10       0.00       0.00       7.37      87.57       2.95      90.52        0.07     0.01   0.878
  sub72                    103.10       0.00       0.00       7.50      87.24       2.81      90.06        0.14     0.01   0.873
  sub73                    103.10       0.00       0.00       7.43      87.45       2.88      90.33        0.17     0.02   0.876
  sub74                    103.10       0.00       0.00       7.36      87.58       2.95      90.53        0.08     0.01   0.878
  sub75                    103.10       0.00       0.00       7.40      87.50       2.91      90.41        0.13     0.01   0.877
  sub76                    103.10       0.00       0.00       7.35      87.60       2.96      90.56        0.07     0.01   0.878
  sub77                    103.10       0.00       0.00      11.06      82.82       4.24      87.06        0.12     0.01   0.844
  sub78                    103.10       0.00       0.00       7.38      87.55       2.93      90.49        0.07     0.01   0.878
  sub79                    103.10       0.00       0.00       7.39      87.53       2.92      90.45        0.13     0.01   0.877
  sub80                    103.10       0.00       0.00       7.40      87.52       2.92      90.43        0.12     0.01   0.877
  sub81                    103.10       0.00       0.00       7.52      87.15       2.79      89.94        0.37     0.03   0.872
  sub82                    103.10       0.00       0.00       7.35      87.60       2.96      90.57        0.05     0.01   0.878
  sub83                    103.10       0.00       0.00      14.03      79.14       5.07      84.21        0.19     0.02   0.817
  sub84                    103.10       0.00       0.00       7.35      87.60       2.96      90.56        0.08     0.01   0.878
  sub85                    103.10       0.00       0.00       7.37      87.57       2.95      90.52        0.10     0.01   0.878
  sub86                    103.10       0.00       0.00       7.37      87.57       2.94      90.51        0.10     0.01   0.878
  sub87                    103.10       0.00       0.00       7.40      87.51       2.91      90.42        0.17     0.02   0.877
  sub88                    103.10       0.00       0.00       7.40      87.51       2.91      90.43        0.14     0.01   0.877
  sub89                    103.10       0.00       0.00       7.42      87.46       2.89      90.34        0.21     0.02   0.876
  sub90                    103.10       0.00       0.00       7.40      87.51       2.91      90.42        0.14     0.01   0.877
  sub91                    103.10       0.00       0.00       7.36      87.58       2.95      90.54        0.07     0.01   0.878
  sub92                    103.10       0.00       0.00       7.42      87.47       2.89      90.36        0.16     0.02   0.876
  sub93                    103.10       0.00       0.00       7.38      87.54       2.93      90.47        0.08     0.01   0.877
  sub94                    103.10       0.00       0.00       7.39      87.52       2.92      90.44        0.06     0.01   0.877
  sub95                    103.10       0.00       0.00       7.69      87.09       2.95      90.04        0.21     0.02   0.873
  sub96                    103.10       0.00       0.00       7.38      87.54       2.93      90.47        0.08     0.01   0.877
  sub97                    103.10       0.00       0.00       7.36      87.58       2.95      90.52        0.05     0.01   0.878
  sub98                    103.10       0.00       0.00       7.39      87.53       2.92      90.46        0.11     0.01   0.877
  sub99                    103.10       0.00       0.00       7.38      87.54       2.93      90.47        0.09     0.01   0.877
  sub100                   103.10       0.00       0.00       7.40      87.50       2.91      90.41        0.07     0.01   0.877
  sub101                   103.10       0.00       0.00       7.36      87.58       2.95      90.53        0.04     0.00   0.878
  sub102                   103.10       0.00       0.00       7.41      87.48       2.90      90.38        0.12     0.01   0.877
  sub103                   103.10       0.00       0.00       7.42      87.45       2.89      90.34        0.12     0.01   0.876
  sub104                   103.10       0.00       0.00       7.41      87.49       2.91      90.40        0.06     0.01   0.877
  sub105                   103.10       0.00       0.00       7.34      87.61       2.97      90.58        0.05     0.01   0.879
  sub106                   103.10       0.00       0.00       7.52      87.17       2.79      89.97        0.20     0.02   0.873
  sub107                   103.10       0.00       0.00       7.37      87.57       2.94      90.51        0.13     0.01   0.878
  sub108                   103.10       0.00       0.00       7.40      87.51       2.91      90.43        0.17     0.02   0.877
  sub109                   103.10       0.00       0.00       7.40      87.51       2.91      90.42        0.13     0.01   0.877
  sub110                   103.10       0.00       0.00       7.33      87.62       2.98      90.59        0.06     0.01   0.879
  sub111                   103.10       0.00       0.00       7.28      87.67       3.03      90.71        0.03     0.00   0.880
  sub112                   103.10       0.00       0.00       7.33      87.63       2.99      90.61        0.04     0.00   0.879
  sub113                   103.10       0.00       0.00       7.29      87.67       3.02      90.69        0.02     0.00   0.880
  sub114                   103.10       0.00       0.00       7.29      87.67       3.02      90.69        0.02     0.00   0.880
  sub115                   103.10       0.00       0.00       7.32      87.64       3.00      90.64        0.03     0.00   0.879
  sub116                   103.10       0.00       0.00       7.34      87.61       2.97      90.58        0.04     0.01   0.879
  sub117                   103.10       0.00       0.00       7.32      87.64       2.99      90.63        0.04     0.00   0.879
  sub118                   103.10       0.00       0.00       7.34      87.62       2.98      90.59        0.05     0.01   0.879
  sub119                   103.10       0.00       0.00       7.29      87.67       3.03      90.70        0.02     0.00   0.880
  sub120                   103.10       0.00       0.00       7.38      87.55       2.93      90.48        0.06     0.01   0.878
  sub121                   103.10       0.00       0.00       7.38      87.54       2.93      90.47        0.12     0.01   0.877
  sub122                   103.10       0.00       0.00       7.32      87.64       2.99      90.63        0.06     0.01   0.879
  sub123                   103.10       0.00       0.00       7.42      87.46       2.89      90.36        0.18     0.02   0.876
  sub124                   103.10       0.00       0.00       7.26      87.69       3.05      90.74        0.01     0.00   0.880
  sub125                   103.10       0.00       0.00       7.35      87.60       2.96      90.56        0.04     0.00   0.878
  sub126                   103.10       0.00       0.00       7.34      87.62       2.97      90.59        0.02     0.00   0.879
  sub127                   103.10       0.00       0.00       7.27      87.68       3.04      90.72        0.01     0.00   0.880
  sub128                   103.10       0.00       0.00       7.28      87.68       3.04      90.71        0.01     0.00   0.880
  sub129                   103.10       0.00       0.00       7.47      87.32       2.84      90.16        0.15     0.01   0.874
  sub130                   103.10       0.00       0.00       7.29      87.66       3.02      90.68        0.02     0.00   0.880
  sub131                   103.10       0.00       0.00       7.34      87.61       2.97      90.58        0.05     0.01   0.879
  sub132                   103.10       0.00       0.00       7.37      87.57       2.95      90.52        0.05     0.01   0.878
  sub133                   103.10       0.00       0.00       7.27      87.68       3.04      90.73        0.00     0.00   0.880
  sub134                   103.10       0.00       0.00       7.39      87.53       2.92      90.45        0.10     0.01   0.877
  sub135                   103.10       0.00       0.00       7.33      87.63       2.98      90.61        0.05     0.01   0.879
  sub136                   103.10       0.00       0.00       7.36      87.59       2.96      90.54        0.04     0.01   0.878
  sub137                   103.10       0.00       0.00       7.33      87.62       2.98      90.61        0.04     0.00   0.879
  sub138                   103.10       0.00       0.00       7.29      87.66       3.02      90.68        0.02     0.00   0.880
  sub139                   103.10       0.00       0.00       7.34      87.61       2.97      90.59        0.05     0.01   0.879
  sub140                   103.10       0.00       0.00       7.30      87.65       3.01      90.66        0.03     0.00   0.879
  sub141                   103.10       0.00       0.00       7.36      87.57       2.95      90.52        0.08     0.01   0.878
  sub142                   103.10       0.00       0.00       7.39      87.52       2.92      90.44        0.12     0.01   0.877
  sub143                   103.10       0.00       0.00       7.37      87.56       2.94      90.50        0.09     0.01   0.878
  sub144                   103.10       0.00       0.00       7.49      87.27       2.82      90.09        0.14     0.01   0.874
  sub145                   103.10       0.00       0.00       7.47      87.34       2.84      90.18        0.24     0.02   0.875
  sub146                   103.10       0.00       0.00       7.41      87.48       2.90      90.38        0.07     0.01   0.877
  sub147                   103.10       0.00       0.00       7.35      87.60       2.96      90.56        0.05     0.01   0.878
  sub148                   103.10       0.00       0.00       7.33      87.63       2.98      90.61        0.06     0.01   0.879
  sub149                   103.10       0.00       0.00       7.33      87.63       2.98      90.61        0.03     0.00   0.879
  sub150                   103.10       0.00       0.00       7.31      87.65       3.01      90.66        0.03     0.00   0.879
  sub151                   103.10       0.00       0.00       7.35      87.59       2.96      90.55        0.09     0.01   0.878
  sub152                   103.10       0.00       0.00       7.30      87.65       3.01      90.66        0.03     0.00   0.879
  sub153                   103.10       0.00       0.00       7.32      87.64       2.99      90.63        0.03     0.00   0.879
  sub154                   103.10       0.00       0.00       7.37      87.56       2.94      90.50        0.10     0.01   0.878
  sub155                   103.10       0.00       0.00       7.37      87.56       2.94      90.49        0.06     0.01   0.878
  sub156                   103.10       0.00       0.00       7.35      87.60       2.96      90.56        0.07     0.01   0.878
  sub157                   103.10       0.00       0.00       7.33      87.62       2.98      90.60        0.04     0.00   0.879
  sub158                   103.10       0.00       0.00       7.35      87.59       2.96      90.55        0.06     0.01   0.878
  sub159                   103.10       0.00       0.00       7.48      87.31       2.84      90.15        0.20     0.02   0.874
  sub160                   103.10       0.00       0.00       7.40      87.52       2.92      90.43        0.10     0.01   0.877
  sub161                   103.10       0.00       0.00       7.32      87.63       2.99      90.62        0.03     0.00   0.879
  sub162                   103.10       0.00       0.00       7.36      87.57       2.95      90.52        0.05     0.01   0.878
  sub163                   103.10       0.00       0.00       7.41      87.49       2.90      90.39        0.12     0.01   0.877
  sub164                   103.10       0.00       0.00       7.40      87.51       2.91      90.43        0.14     0.01   0.877
  sub165                   103.10       0.00       0.00       7.36      87.59       2.95      90.54        0.06     0.01   0.878
  sub166                   103.10       0.00       0.00       7.42      87.47       2.89      90.37        0.16     0.01   0.876
  sub167                   103.10       0.00       0.00       7.36      87.58       2.95      90.54        0.08     0.01   0.878
  sub168                   103.10       0.00       0.00       7.38      87.54       2.93      90.47        0.07     0.01   0.877
  sub169                   103.10       0.00       0.00       7.39      87.54       2.93      90.46        0.05     0.01   0.877
  sub170                   103.10       0.00       0.00       7.36      87.58       2.95      90.53        0.06     0.01   0.878
  sub171                   103.10       0.00       0.00       7.32      87.64       3.00      90.64        0.03     0.00   0.879
  sub172                   103.10       0.00       0.00       7.39      87.52       2.92      90.44        0.11     0.01   0.877
  sub173                   103.10       0.00       0.00       7.36      87.58       2.95      90.53        0.05     0.01   0.878
  sub174                   103.10       0.00       0.00       7.40      87.51       2.91      90.42        0.14     0.01   0.877
  sub175                   103.10       0.00       0.00       7.36      87.58       2.95      90.53        0.05     0.01   0.878
  sub176                   103.10       0.00       0.00       7.37      87.56       2.94      90.50        0.05     0.01   0.878
  sub177                   103.10       0.00       0.00       7.37      87.56       2.94      90.50        0.08     0.01   0.878
  sub178                   103.10       0.00       0.00       7.36      87.57       2.95      90.52        0.08     0.01   0.878
  sub179                   103.10       0.00       0.00       7.40      87.51       2.91      90.43        0.12     0.01   0.877
  sub180                   103.10       0.00       0.00       7.44      87.41       2.87      90.28        0.16     0.01   0.876
  sub181                   103.10       0.00       0.00       7.31      87.64       3.00      90.64        0.04     0.01   0.879
  sub182                   103.10       0.00       0.00       7.26      87.69       3.05      90.74        0.01     0.00   0.880
  sub183                   103.10       0.00       0.00       7.27      87.68       3.04      90.72        0.01     0.00   0.880
  sub184                   103.10       0.00       0.00       7.32      87.64       2.99      90.63        0.03     0.00   0.879
  sub185                   103.10       0.00       0.00       7.29      87.66       3.02      90.68        0.01     0.00   0.880
  sub186                   103.10       0.00       0.00       7.42      87.46       2.89      90.35        0.10     0.01   0.876
  sub187                   103.10       0.00       0.00       7.55      87.05       2.76      89.81        0.39     0.03   0.871
  sub188                   103.10       0.00       0.00       7.41      87.49       2.90      90.39        0.10     0.01   0.877
  sub189                   103.10       0.00       0.00       7.37      87.56       2.94      90.50        0.05     0.01   0.878
  sub190                   103.10       0.00       0.00       7.93      86.79       3.05      89.84        0.26     0.02   0.871
  sub191                   103.10       0.00       0.00       8.19      86.47       3.15      89.62        0.21     0.02   0.869
  sub192                   103.10       0.00       0.00       7.37      87.57       2.94      90.51        0.10     0.01   0.878
  sub193                   103.10       0.00       0.00       7.37      87.57       2.95      90.52        0.06     0.01   0.878
  sub194                   103.10       0.00       0.00       8.51      86.07       3.27      89.33        0.20     0.02   0.866
  sub195                   103.10       0.00       0.00       7.38      87.54       2.93      90.47        0.11     0.01   0.878
  sub196                   103.10       0.00       0.00       7.58      86.90       2.73      89.63        0.37     0.03   0.869
  sub197                   103.10       0.00       0.00       7.33      87.62       2.98      90.60        0.03     0.00   0.879
  sub198                   103.10       0.00       0.00       7.24      87.70       3.07      90.77        0.00     0.00   0.880
  sub199                   103.10       0.00       0.00       7.41      87.49       2.90      90.39        0.10     0.01   0.877
  sub200                   103.10       0.00       0.00       7.39      87.54       2.93      90.46        0.09     0.01   0.877
  sub201                   103.10       0.00       0.00       7.38      87.54       2.93      90.46        0.15     0.02   0.877
  sub202                   103.10       0.00       0.00       7.31      87.64       3.00      90.64        0.03     0.00   0.879
  sub203                   103.10       0.00       0.00       7.35      87.59       2.96      90.55        0.03     0.00   0.878
  sub204                   103.10       0.00       0.00       7.39      87.54       2.93      90.46        0.06     0.01   0.877
  sub205                   103.10       0.00       0.00       7.34      87.61       2.97      90.59        0.04     0.01   0.879
  sub206                   103.10       0.00       0.00       7.45      87.39       2.86      90.25        0.19     0.02   0.875
  sub207                   103.10       0.00       0.00       7.39      87.53       2.92      90.45        0.04     0.00   0.877
  sub208                   103.10       0.00       0.00       7.32      87.64       2.99      90.63        0.03     0.00   0.879
  sub209                   103.10       0.00       0.00       7.37      87.57       2.95      90.52        0.05     0.01   0.878
  sub210                   103.10       0.00       0.00       7.33      87.63       2.98      90.61        0.03     0.00   0.879
  sub211                   103.10       0.00       0.00       7.44      87.41       2.87      90.28        0.11     0.01   0.876
  sub212                   103.10       0.00       0.00       7.36      87.58       2.95      90.53        0.06     0.01   0.878
  sub213                   103.10       0.00       0.00       7.35      87.60       2.97      90.57        0.05     0.01   0.878
  sub214                   103.10       0.00       0.00       7.37      87.57       2.94      90.51        0.07     0.01   0.878
  sub215                   103.10       0.00       0.00       7.38      87.55       2.93      90.48        0.08     0.01   0.878
  sub216                   103.10       0.00       0.00       7.30      87.66       3.02      90.68        0.03     0.00   0.880
  sub217                   103.10       0.00       0.00       7.30      87.66       3.01      90.67        0.03     0.00   0.879
  sub218                   103.10       0.00       0.00       7.37      87.57       2.94      90.51        0.07     0.01   0.878
  sub219                   103.10       0.00       0.00       7.36      87.58       2.95      90.53        0.11     0.01   0.878
  sub220                   103.10       0.00       0.00       7.28      87.68       3.03      90.71        0.02     0.00   0.880
  sub221                   103.10       0.00       0.00       7.30      87.66       3.01      90.67        0.03     0.00   0.879
  sub222                   103.10       0.00       0.00       7.31      87.65       3.01      90.66        0.04     0.01   0.879
  sub223                   103.10       0.00       0.00       7.44      87.40       2.87      90.27        0.18     0.02   0.876
  sub224                   103.10       0.00       0.00       7.34      87.61       2.97      90.58        0.05     0.01   0.879
  sub225                   103.10       0.00       0.00       7.47      87.33       2.84      90.17        0.19     0.02   0.875
  sub226                   103.10       0.00       0.00       7.44      87.42       2.87      90.29        0.25     0.02   0.876
  sub227                   103.10       0.00       0.00       7.38      87.54       2.93      90.47        0.08     0.01   0.877
  sub228                   103.10       0.00       0.00       7.48      87.29       2.83      90.12        0.32     0.03   0.874
  sub229                   103.10       0.00       0.00       7.43      87.44       2.88      90.32        0.13     0.01   0.876
  sub230                   103.10       0.00       0.00       7.36      87.58       2.95      90.53        0.09     0.01   0.878
  sub231                   103.10       0.00       0.00       7.38      87.54       2.93      90.47        0.08     0.01   0.877
  sub232                   103.10       0.00       0.00       7.29      87.67       3.02      90.69        0.02     0.00   0.880
  sub233                   103.10       0.00       0.00       7.36      87.58       2.95      90.53        0.05     0.01   0.878
  sub234                   103.10       0.00       0.00       7.41      87.49       2.90      90.39        0.13     0.01   0.877
  sub235                   103.10       0.00       0.00       7.37      87.57       2.95      90.52        0.06     0.01   0.878
  sub236                   103.10       0.00       0.00       7.40      87.51       2.91      90.42        0.11     0.01   0.877
  sub237                   103.10       0.00       0.00       7.34      87.61       2.97      90.59        0.03     0.00   0.879
  sub238                   103.10       0.00       0.00       7.38      87.55       2.93      90.48        0.06     0.01   0.878
  sub239                   103.10       0.00       0.00       7.37      87.56       2.94      90.51        0.09     0.01   0.878
  sub240                   103.10       0.00       0.00       7.38      87.55       2.93      90.48        0.07     0.01   0.878
  sub241                   103.10       0.00       0.00       7.37      87.56       2.94      90.49        0.03     0.00   0.878
  sub242                   103.10       0.00       0.00       7.37      87.57       2.94      90.51        0.07     0.01   0.878
  sub243                   103.10       0.00       0.00       7.37      87.56       2.94      90.49        0.11     0.01   0.878
  sub244                   103.10       0.00       0.00       7.35      87.60       2.96      90.56        0.08     0.01   0.878
  sub245                   103.10       0.00       0.00       7.37      87.57       2.94      90.51        0.11     0.01   0.878
  sub246                   103.10       0.00       0.00       7.30      87.66       3.01      90.67        0.04     0.01   0.879
  sub247                   103.10       0.00       0.00       7.54      87.08       2.77      89.85        0.36     0.03   0.871
  sub248                   103.10       0.00       0.00       7.37      87.57       2.94      90.51        0.08     0.01   0.878
  sub249                   103.10       0.00       0.00       7.38      87.55       2.93      90.48        0.05     0.01   0.878
  sub250                   103.10       0.00       0.00       7.33      87.62       2.98      90.60        0.02     0.00   0.879
  sub251                   103.10       0.00       0.00       7.43      87.44       2.88      90.32        0.20     0.02   0.876
  sub252                   103.10       0.00       0.00       7.39      87.52       2.92      90.44        0.14     0.01   0.877
  sub253                   103.10       0.00       0.00       7.44      87.41       2.87      90.27        0.18     0.02   0.876
  sub254                   103.10       0.00       0.00       7.46      87.35       2.85      90.19        0.28     0.02   0.875
  sub255                   103.10       0.00       0.00       7.42      87.45       2.89      90.34        0.20     0.02   0.876
  sub256                   103.10       0.00       0.00       7.42      87.45       2.89      90.34        0.18     0.02   0.876
  sub257                   103.10       0.00       0.00       7.43      87.43       2.88      90.31        0.19     0.02   0.876
  sub258                   103.10       0.00       0.00       7.44      87.42       2.87      90.29        0.20     0.02   0.876
  sub259                   103.10       0.00       0.00       7.43      87.43       2.88      90.31        0.20     0.02   0.876
  sub260                   103.10       0.00       0.00       7.42      87.46       2.89      90.34        0.17     0.02   0.876
  sub261                   103.10       0.00       0.00       7.42      87.46       2.89      90.35        0.15     0.01   0.876
  sub262                   103.10       0.00       0.00       7.35      87.60       2.96      90.56        0.12     0.01   0.878
  sub263                   103.10       0.00       0.00       7.31      87.65       3.01      90.66        0.04     0.01   0.879
  sub264                   103.10       0.00       0.00       7.44      87.41       2.87      90.29        0.24     0.02   0.876
  sub265                   103.10       0.00       0.00       7.35      87.60       2.97      90.57        0.10     0.01   0.878
  sub266                   103.10       0.00       0.00       7.35      87.59       2.96      90.56        0.05     0.01   0.878
  
  
  ******************
  Node Depth Summary
  ******************
  
  ---------------------------------------------------------------------------------
                                 Average  Maximum  Maximum  Time of Max    Reported
                                   Depth    Depth      HGL   Occurrence   Max Depth
  Node                 Type       Meters   Meters   Meters  days hr:min      Meters
  ---------------------------------------------------------------------------------
  Y029640              JUNCTION     0.08     1.04    44.70     1  08:05        0.74
  Y029650              JUNCTION     0.12     1.39    44.78     1  08:12        1.23
  Y029652              JUNCTION     0.11     0.83    44.76     1  08:12        0.64
  Y029653              JUNCTION     0.08     1.19    44.90     1  08:12        0.95
  Y029657              JUNCTION     0.20     2.76    42.26     1  08:16        2.11
  Y029885              JUNCTION     0.06     0.83    44.81     1  08:12        0.59
  Y029887              JUNCTION     0.07     0.46    43.74     1  08:47        0.44
  Y029904              JUNCTION     0.26     1.27    44.00     1  08:05        1.27
  Y029905              JUNCTION     0.32     1.22    44.88     1  08:03        1.20
  Y029942              JUNCTION     0.02     0.38    44.63     1  08:22        0.25
  Y029945              JUNCTION     0.15     0.98    44.57     1  08:35        0.96
  Y029946              JUNCTION     0.15     1.62    44.59     1  08:12        1.59
  Y029947              JUNCTION     0.21     2.31    41.60     1  08:47        2.11
  Y029949              JUNCTION     0.09     0.85    44.38     1  08:53        0.83
  Y029950              JUNCTION     0.15     1.07    43.62     1  08:46        1.00
  Y029959              JUNCTION     0.09     0.91    44.39     1  08:47        0.79
  Y029961              JUNCTION     0.26     1.95    40.75     1  08:46        1.80
  Y029962              JUNCTION     0.02     0.72    44.73     1  08:46        0.55
  Y029963              JUNCTION     0.20     1.57    45.54     1  08:09        1.53
  Y030009              JUNCTION     0.02     0.50    44.52     1  08:47        0.37
  Y030023              JUNCTION     0.04     0.55    44.78     1  08:46        0.50
  Y030024              JUNCTION     0.16     1.24    44.62     1  08:46        1.11
  Y030078              JUNCTION     0.31     1.41    44.64     1  08:46        1.26
  Y030099              JUNCTION     0.07     1.24    45.00     1  08:05        0.65
  Y030124              JUNCTION     0.52     1.92    45.54     1  08:09        1.88
  Y030134              JUNCTION     0.11     0.95    44.86     1  08:03        0.95
  Y030135              JUNCTION     0.24     1.62    45.15     1  08:10        1.59
  Y030179              JUNCTION     0.04     0.75    44.50     1  08:46        0.63
  Y030217              JUNCTION     0.07     0.38    43.42     1  08:47        0.36
  Y030306              JUNCTION     0.08     0.87    45.01     1  08:23        0.82
  Y030397              JUNCTION     0.26     1.80    40.48     1  08:17        1.57
  Y030527              JUNCTION     0.08     0.82    45.02     1  08:23        0.77
  Y030541              JUNCTION     0.32     1.37    44.73     1  08:46        1.35
  Y030542              JUNCTION     0.22     1.35    44.73     1  08:12        1.24
  Y030543              JUNCTION     0.25     1.36    44.23     1  08:21        1.35
  Y030548              JUNCTION     0.26     1.90    44.59     1  08:12        1.86
  Y030582              JUNCTION     0.04     0.11    42.06     1  08:47        0.11
  Y030583              JUNCTION     0.11     0.98    44.92     1  08:23        0.95
  Y030585              JUNCTION     0.13     1.16    44.52     1  08:05        1.16
  Y030587              JUNCTION     0.06     0.74    44.57     1  08:22        0.64
  Y030588              JUNCTION     0.30     1.31    44.69     1  08:25        1.30
  Y030601              JUNCTION     0.06     0.78    44.52     1  08:47        0.64
  Y030640              JUNCTION     0.13     1.18    44.64     1  08:05        0.94
  Y030711              JUNCTION     0.30     1.61    44.90     1  08:12        1.36
  Y030712              JUNCTION     0.19     1.83    45.39     1  08:12        1.16
  Y030713              JUNCTION     0.75     1.82    44.75     1  08:23        1.80
  Y030795              JUNCTION     0.33     1.45    44.14     1  08:25        1.43
  Y030796              JUNCTION     0.06     1.12    45.06     1  08:12        0.62
  Y030797              JUNCTION     0.21     0.78    44.56     1  08:58        0.77
  Y030798              JUNCTION     0.11     1.14    44.56     1  08:05        1.12
  Y030800              JUNCTION     0.11     1.01    44.88     1  08:03        1.00
  Y030801              JUNCTION     0.08     1.36    45.76     1  08:09        0.87
  Y030963              JUNCTION     0.09     1.15    44.69     1  08:47        1.00
  Y030969              JUNCTION     0.21     1.84    45.38     1  08:12        1.18
  Y030971              JUNCTION     0.16     1.10    44.34     1  08:20        1.08
  Y030991              JUNCTION     0.10     0.88    44.20     1  08:47        0.79
  Y031021              JUNCTION     0.08     0.91    44.33     1  08:47        0.79
  Y031068              JUNCTION     0.35     1.53    44.88     1  08:46        1.51
  Y031069              JUNCTION     0.16     1.55    45.49     1  08:09        1.30
  Y031121              JUNCTION     0.13     0.89    43.34     1  08:47        0.83
  Y031141              JUNCTION     0.22     1.60    44.24     1  08:45        1.56
  Y031142              JUNCTION     0.06     0.63    45.03     1  08:22        0.59
  Y031148              JUNCTION     0.16     1.11    44.37     1  08:24        1.07
  Y031149              JUNCTION     0.15     1.22    44.40     1  08:22        1.21
  Y031152              JUNCTION     0.27     1.32    43.89     1  08:48        1.29
  Y031230              JUNCTION     0.16     1.25    44.72     1  08:46        1.09
  Y031236              JUNCTION     0.22     1.07    44.52     1  08:09        1.07
  Y031393              JUNCTION     0.10     1.29    44.90     1  08:12        1.04
  Y031395              JUNCTION     0.16     1.12    44.87     1  08:22        1.11
  Y031417              JUNCTION     0.12     0.83    44.57     1  09:13        0.81
  Y031418              JUNCTION     0.50     1.67    45.19     1  08:52        1.67
  Y031419              JUNCTION     0.27     2.37    41.46     1  08:47        2.17
  Y031420              JUNCTION     0.17     1.39    45.23     1  08:10        1.32
  Y031421              JUNCTION     0.16     1.46    44.87     1  08:12        1.23
  Y031535              JUNCTION     0.09     1.79    46.22     1  08:09        0.85
  Y031537              JUNCTION     0.16     1.50    45.43     1  08:10        1.30
  Y031544              JUNCTION     0.07     0.75    45.03     1  08:22        0.70
  Y031581              JUNCTION     0.15     1.15    44.36     1  08:52        1.13
  Y031582              JUNCTION     0.42     1.42    44.59     1  08:12        1.42
  Y031583              JUNCTION     0.21     2.40    41.83     1  08:16        2.13
  Y031584              JUNCTION     0.07     1.48    46.05     1  08:10        0.74
  Y031610              JUNCTION     0.23     1.64    40.24     1  08:17        1.19
  Y031614              JUNCTION     0.24     1.61    45.54     1  08:09        1.57
  Y031730              JUNCTION     0.01     0.21    44.51     1  08:47        0.09
  Y031737              JUNCTION     0.15     1.35    44.80     1  08:12        1.18
  Y031826              JUNCTION     0.16     1.50    45.51     1  08:09        1.48
  Y031827              JUNCTION     0.11     0.96    44.25     1  08:47        0.86
  Y031829              JUNCTION     0.34     1.35    44.89     1  08:57        1.33
  Y031830              JUNCTION     0.13     0.98    43.51     1  08:49        0.91
  Y031892              JUNCTION     0.17     1.47    44.88     1  08:12        1.22
  Y031893              JUNCTION     0.24     1.43    45.22     1  08:10        1.39
  Y031898              JUNCTION     0.03     0.65    44.51     1  08:46        0.51
  Y031903              JUNCTION     0.39     1.43    44.72     1  08:37        1.41
  Y031999              JUNCTION     0.35     1.44    44.11     1  08:23        1.43
  Y032107              JUNCTION     0.32     2.30    41.12     1  08:47        2.12
  Y032134              JUNCTION     0.28     2.42    41.55     1  08:48        2.23
  Y032136              JUNCTION     0.28     0.85    44.56     1  08:14        0.83
  Y032230              JUNCTION     0.05     0.78    44.40     1  08:47        0.64
  Y032232              JUNCTION     0.03     0.67    44.53     1  08:46        0.53
  Y032273              JUNCTION     0.09     0.66    44.56     1  08:09        0.65
  Y032275              JUNCTION     0.15     1.13    44.37     1  08:46        1.12
  Y032276              JUNCTION     0.21     1.14    44.44     1  08:09        1.14
  Y032277              JUNCTION     0.25     1.52    44.86     1  08:12        1.30
  Y032283              JUNCTION     0.03     0.59    44.72     1  08:46        0.43
  Y032285              JUNCTION     0.09     1.04    44.71     1  08:05        0.72
  Y032311              JUNCTION     0.33     1.45    44.15     1  09:08        1.44
  Y032312              JUNCTION     0.20     1.64    44.33     1  08:46        1.60
  Y032313              JUNCTION     0.35     1.48    44.83     1  08:46        1.45
  Y032314              JUNCTION     0.09     0.78    44.74     1  08:16        0.76
  Y032315              JUNCTION     0.08     0.75    44.78     1  08:47        0.73
  Y032357              JUNCTION     0.29     2.36    41.25     1  08:48        2.18
  Y032358              JUNCTION     0.37     1.71    45.50     1  08:09        1.71
  Y032363              JUNCTION     0.33     1.66    45.37     1  08:55        1.64
  Y032374              JUNCTION     0.52     1.93    45.55     1  08:09        1.88
  Y032375              JUNCTION     0.21     1.57    45.53     1  08:09        1.53
  Y032607              JUNCTION     0.16     0.83    39.36     1  08:47        0.77
  Y032608              JUNCTION     0.13     1.13    44.58     1  08:05        0.94
  Y032611              JUNCTION     0.17     2.45    42.10     1  08:16        1.97
  Y032701              JUNCTION     0.08     1.04    44.68     1  08:05        0.93
  Y032719              JUNCTION     0.26     2.34    41.36     1  08:47        2.15
  Y032731              JUNCTION     0.17     1.22    43.81     1  08:48        1.17
  Y032741              JUNCTION     0.22     1.70    44.39     1  08:45        1.65
  Y032747              JUNCTION     0.21     1.33    44.67     1  08:46        1.18
  Y032760              JUNCTION     0.12     1.09    44.87     1  08:45        1.06
  Y032829              JUNCTION     0.04     0.79    44.69     1  08:46        0.64
  Y032839              JUNCTION     0.29     1.69    45.56     1  08:09        1.64
  Y032897              JUNCTION     0.28     1.01    44.53     1  08:47        0.87
  Y032936              JUNCTION     0.17     1.23    44.66     1  08:12        1.19
  Y032937              JUNCTION     0.20     1.40    44.31     1  08:35        1.39
  Y032938              JUNCTION     0.18     1.61    44.58     1  08:12        1.61
  Y033129              JUNCTION     0.05     0.59    44.37     1  08:21        0.57
  Y033131              JUNCTION     0.18     1.27    44.35     1  09:17        1.25
  Y033133              JUNCTION     0.62     1.94    44.90     1  08:12        1.67
  Y033153              JUNCTION     0.19     1.27    44.77     1  08:44        1.25
  Y033202              JUNCTION     0.23     1.18    44.55     1  08:03        1.18
  Y033204              JUNCTION     0.19     1.44    44.06     1  08:47        1.38
  Y033275              JUNCTION     0.07     0.70    44.67     1  08:12        0.60
  Y033307              JUNCTION     0.01     0.36    44.52     1  08:47        0.23
  Y033332              JUNCTION     0.04     0.55    44.62     1  08:22        0.42
  Y033333              JUNCTION     0.28     1.23    43.66     1  08:45        1.20
  Y033338              JUNCTION     0.04     0.95    44.73     1  08:46        0.78
  Y033431              JUNCTION     0.09     0.94    44.99     1  08:22        0.90
  Y033479              JUNCTION     0.10     1.04    44.46     1  08:47        0.92
  Y033523              JUNCTION     0.31     1.71    45.44     1  08:37        1.69
  Y033526              JUNCTION     0.07     0.89    42.02     1  08:48        0.67
  Y033528              JUNCTION     0.08     0.73    44.69     1  08:21        0.70
  Y033578              JUNCTION     0.04     1.02    44.73     1  08:47        0.85
  Y033580              JUNCTION     0.26     0.97    44.09     1  08:47        0.87
  Y033666              JUNCTION     0.23     1.30    44.76     1  08:22        1.28
  Y033681              JUNCTION     0.09     0.82    44.76     1  08:48        0.80
  Y033682              JUNCTION     0.32     1.61    44.88     1  08:12        1.37
  Y033683              JUNCTION     0.09     0.82    44.79     1  08:16        0.80
  Y033721              JUNCTION     0.06     0.78    44.70     1  08:47        0.65
  Y033724              JUNCTION     0.14     0.98    44.29     1  08:47        0.87
  Y033743              JUNCTION     0.11     1.71    45.16     1  08:12        1.24
  Y033768              JUNCTION     0.09     0.86    44.50     1  08:05        0.77
  Y033772              JUNCTION     0.17     1.31    45.18     1  08:10        1.31
  Y033773              JUNCTION     0.07     0.44    42.61     1  08:48        0.34
  Y033777              JUNCTION     0.23     1.31    44.77     1  08:21        1.28
  Y033912              JUNCTION     0.13     1.11    44.87     1  08:44        1.09
  Y033913              JUNCTION     0.15     1.14    44.49     1  08:05        1.02
  Y033936              JUNCTION     0.15     1.71    45.10     1  08:12        1.29
  Y033937              JUNCTION     0.14     1.14    42.27     1  08:47        0.92
  Y033938              JUNCTION     0.23     1.20    44.65     1  08:10        1.20
  Y034019              JUNCTION     0.10     0.95    44.36     1  08:11        0.94
  Y034022              JUNCTION     0.21     0.77    44.55     1  08:09        0.77
  Y034023              JUNCTION     0.34     1.32    44.66     1  08:10        1.32
  Y034024              JUNCTION     0.20     1.18    44.34     1  08:10        1.18
  Y034233              JUNCTION     0.13     1.16    44.50     1  08:44        1.14
  Y034253              JUNCTION     0.04     0.59    44.87     1  08:24        0.46
  Y034256              JUNCTION     0.31     1.45    44.17     1  08:05        1.45
  Y034312              JUNCTION     0.11     0.65    42.94     1  08:48        0.60
  Y034314              JUNCTION     0.23     2.35    41.68     1  08:47        2.14
  Y034349              JUNCTION     0.11     1.06    44.47     1  08:47        0.94
  Y034351              JUNCTION     0.12     1.01    44.30     1  08:47        0.91
  Y034355              JUNCTION     0.04     0.64    44.40     1  08:46        0.52
  Y034363              JUNCTION     0.06     0.82    44.49     1  08:46        0.69
  Y034403              JUNCTION     0.18     1.00    44.24     1  08:46        0.90
  Y034437              JUNCTION     0.37     1.48    44.01     1  08:35        1.46
  Y034542              JUNCTION     0.28     1.03    44.78     1  08:24        1.00
  Y034559              JUNCTION     0.27     1.63    45.11     1  08:53        1.61
  Y034560              JUNCTION     0.10     1.10    44.61     1  08:05        1.05
  Y034571              JUNCTION     0.16     1.56    45.50     1  08:09        1.30
  Y034572              JUNCTION     0.13     1.01    43.56     1  08:48        0.94
  Y034573              JUNCTION     0.15     1.08    44.37     1  08:46        1.06
  Y034683              JUNCTION     0.21     1.22    44.34     1  08:23        1.19
  Y034774              JUNCTION     0.09     1.71    45.37     1  08:12        1.05
  Y034775              JUNCTION     0.11     0.99    44.97     1  08:23        0.95
  Y034776              JUNCTION     0.25     1.53    44.99     1  08:49        1.51
  Y034972              JUNCTION     0.15     1.44    44.83     1  08:12        1.24
  Y034985              JUNCTION     0.34     1.76    45.57     1  08:09        1.69
  Y035031              JUNCTION     0.10     0.75    44.57     1  08:12        0.75
  Y035036              JUNCTION     0.06     1.26    45.12     1  08:12        0.69
  Y035038              JUNCTION     0.12     0.78    43.15     1  08:48        0.72
  Y035039              JUNCTION     0.16     1.10    44.38     1  08:22        1.07
  Y035073              JUNCTION     0.34     1.76    45.57     1  08:09        1.69
  Y035146              JUNCTION     0.25     1.91    44.60     1  08:12        1.81
  Y035147              JUNCTION     0.22     1.31    44.69     1  08:12        1.23
  Y035148              JUNCTION     0.17     1.21    44.36     1  08:55        1.19
  Y035152              JUNCTION     0.13     1.77    45.39     1  08:12        1.09
  Y035360              JUNCTION     0.31     1.01    44.08     1  08:46        0.94
  Y035470              JUNCTION     0.20     1.28    44.71     1  08:46        1.13
  Y035552              JUNCTION     0.18     1.44    45.22     1  08:10        1.37
  Y035645              JUNCTION     0.21     0.78    44.56     1  08:27        0.77
  Y035646              JUNCTION     0.12     1.04    44.35     1  08:12        1.03
  Y035677              JUNCTION     0.08     0.24    42.61     1  08:47        0.24
  Y035678              JUNCTION     0.20     1.53    44.17     1  08:47        1.47
  Y035684              JUNCTION     0.28     1.39    44.65     1  08:46        1.25
  Y035686              JUNCTION     0.03     0.79    44.72     1  08:46        0.63
  Y035691              JUNCTION     0.11     1.74    45.38     1  08:12        1.08
  Y035711              JUNCTION     0.09     0.91    44.26     1  08:47        0.80
  Y036038              JUNCTION     0.29     1.49    44.79     1  08:12        1.33
  Y036039              JUNCTION     0.26     1.31    44.65     1  08:13        1.24
  Y036040              JUNCTION     0.27     1.38    44.71     1  08:12        1.28
  Y036042              JUNCTION     0.25     1.90    44.59     1  08:12        1.83
  Y036418              JUNCTION     0.23     0.95    44.52     1  08:47        0.82
  Y036715              JUNCTION     0.04     0.25    42.14     1  08:47        0.22
  Y036716              JUNCTION     0.00     0.04    42.11     1  08:47        0.03
  Y036764              JUNCTION     0.19     1.05    44.56     1  08:09        1.04
  Y036765              JUNCTION     0.18     1.05    44.56     1  08:28        1.04
  Y036766              JUNCTION     0.20     1.08    44.56     1  09:08        1.06
  Y036767              JUNCTION     0.21     1.08    44.55     1  09:10        1.06
  Y036855              JUNCTION     0.08     1.22    44.74     1  08:23        1.03
  Y036856              JUNCTION     0.08     1.25    44.71     1  08:46        1.08
  Y036857              JUNCTION     0.08     1.29    44.70     1  08:46        1.11
  Y036858              JUNCTION     0.13     1.62    44.65     1  08:46        1.45
  Y036859              JUNCTION     0.14     1.62    44.64     1  08:46        1.43
  Y036860              JUNCTION     0.11     1.55    44.56     1  08:46        1.37
  Y036861              JUNCTION     0.12     1.57    44.54     1  08:46        1.39
  Y036863              JUNCTION     0.13     1.55    44.46     1  08:46        1.38
  Y036864              JUNCTION     0.12     1.48    44.37     1  08:46        1.30
  Y036865              JUNCTION     0.11     1.42    44.23     1  08:46        1.27
  Y036866              JUNCTION     0.13     1.43    44.08     1  08:45        1.29
  Y036867              JUNCTION     0.13     1.30    43.91     1  08:45        1.15
  Y036868              JUNCTION     0.11     1.22    43.82     1  08:46        1.10
  Y036869              JUNCTION     0.11     1.17    43.59     1  08:46        1.07
  Y036870              JUNCTION     0.13     1.09    43.38     1  08:46        1.00
  Y036871              JUNCTION     0.14     0.92    43.16     1  08:46        0.85
  Y036872              JUNCTION     0.10     0.57    42.79     1  08:46        0.52
  Y036874              JUNCTION     0.08     0.48    42.69     1  08:35        0.42
  Y036875              JUNCTION     0.07     0.38    42.57     1  08:46        0.36
  Y036876              JUNCTION     0.03     0.16    41.76     1  08:47        0.16
  Y036884              JUNCTION     0.03     0.55    44.93     1  08:46        0.35
  Y036885              JUNCTION     0.03     0.72    44.73     1  08:46        0.54
  Y036886              JUNCTION     0.06     1.01    44.74     1  08:46        0.83
  Y037059              JUNCTION     0.29     1.35    43.94     1  08:21        1.34
  Y037060              JUNCTION     0.23     1.35    44.67     1  08:46        1.20
  Y037061              JUNCTION     0.09     1.03    44.47     1  08:47        0.91
  Y037062              JUNCTION     0.18     1.30    44.67     1  08:46        1.14
  Y037063              JUNCTION     0.21     1.17    44.48     1  08:47        1.04
  Y037064              JUNCTION     0.03     0.44    44.74     1  08:24        0.44
  Y037065              JUNCTION     0.29     1.61    44.25     1  08:50        1.60
  Y037066              JUNCTION     0.26     1.58    44.30     1  08:15        1.57
  Y037067              JUNCTION     0.34     1.54    44.10     1  08:46        1.52
  Y037068              JUNCTION     0.37     1.52    44.05     1  08:35        1.50
  Y037069              JUNCTION     0.23     1.52    44.32     1  08:14        1.52
  Y037070              JUNCTION     0.23     1.52    44.35     1  08:14        1.52
  Y037071              JUNCTION     0.21     1.45    44.38     1  08:14        1.45
  Y037072              JUNCTION     0.30     1.53    44.14     1  08:58        1.51
  Y037073              JUNCTION     0.28     1.61    44.27     1  08:49        1.58
  Y037166              JUNCTION     0.11     1.28    44.06     1  08:48        1.23
  Y037249              JUNCTION     0.17     1.16    44.87     1  08:44        1.15
  Y037549              JUNCTION     0.27     0.96    44.80     1  08:47        0.92
  Y037550              JUNCTION     0.23     0.92    44.80     1  08:22        0.88
  YF_00530             JUNCTION     0.04     0.56    44.72     1  08:46        0.40
  YF_01035             JUNCTION     0.15     1.13    44.63     1  08:21        1.11
  PSK                  OUTFALL      0.16     0.76    38.75     1  08:47        0.74
  
  
  *******************
  Node Inflow Summary
  *******************
  
  -------------------------------------------------------------------------------------------------
                                  Maximum  Maximum                  Lateral       Total        Flow
                                  Lateral    Total  Time of Max      Inflow      Inflow     Balance
                                   Inflow   Inflow   Occurrence      Volume      Volume       Error
  Node                 Type           CMS      CMS  days hr:min    10^6 ltr    10^6 ltr     Percent
  -------------------------------------------------------------------------------------------------
  Y029640              JUNCTION     0.002    0.021     1  08:22      0.0142       0.176      -0.005
  Y029650              JUNCTION     0.012    0.176     1  08:13      0.0971        2.62       0.001
  Y029652              JUNCTION     0.008    0.047     1  08:09      0.0592       0.381       0.025
  Y029653              JUNCTION     0.013    0.013     1  08:22       0.124       0.124      -0.077
  Y029657              JUNCTION     0.010    0.407     1  08:17      0.0938         5.8       0.001
  Y029885              JUNCTION     0.013    0.055     1  08:12       0.121       0.452       0.001
  Y029887              JUNCTION     0.019    0.409     1  08:47       0.204        4.45      -0.014
  Y029904              JUNCTION     0.014    0.186     1  08:46       0.151        4.66      -0.000
  Y029905              JUNCTION     0.010    0.030     1  08:03      0.0947       0.484       0.142
  Y029942              JUNCTION     0.009    0.009     1  08:22       0.077       0.077       0.000
  Y029945              JUNCTION     0.001    0.087     1  07:53     0.00396       0.399       0.154
  Y029946              JUNCTION     0.006    0.153     1  07:52      0.0458        2.71       0.003
  Y029947              JUNCTION     0.021    0.460     1  08:17       0.221        6.46       0.001
  Y029949              JUNCTION     0.029    0.029     1  08:57       0.371       0.371       0.001
  Y029950              JUNCTION     0.012    0.292     1  08:21       0.132        4.74       0.001
  Y029959              JUNCTION     0.012    0.086     1  08:47       0.134        1.03       0.001
  Y029961              JUNCTION     0.015    1.255     1  08:47        0.15        19.2       0.001
  Y029962              JUNCTION     0.009    0.084     1  08:25      0.0833        0.15       0.004
  Y029963              JUNCTION     0.027    0.047     1  09:23       0.336        0.64       0.120
  Y030009              JUNCTION     0.002    0.020     1  08:23      0.0156      0.0924      -0.004
  Y030023              JUNCTION     0.017    0.026     1  08:24       0.191       0.277       0.004
  Y030024              JUNCTION     0.009    0.169     1  08:47      0.0859        1.96       0.029
  Y030078              JUNCTION     0.010    0.160     1  08:47      0.0816        1.88       0.100
  Y030099              JUNCTION     0.012    0.012     1  08:22       0.109       0.109      -0.003
  Y030124              JUNCTION     0.005    0.058     1  09:23      0.0334       0.781       0.499
  Y030134              JUNCTION     0.013    0.076     1  08:22       0.125       0.691      -0.000
  Y030135              JUNCTION     0.019    0.144     1  08:11       0.199        2.49      -0.001
  Y030179              JUNCTION     0.008    0.041     1  08:24      0.0714       0.228      -0.001
  Y030217              JUNCTION     0.027    0.435     1  08:47       0.323        4.78       0.003
  Y030306              JUNCTION     0.004    0.037     1  08:22      0.0269       0.391      -0.002
  Y030397              JUNCTION     0.005    1.647     1  08:47      0.0462        23.5       0.001
  Y030527              JUNCTION     0.010    0.034     1  08:47      0.0901       0.364       0.000
  Y030541              JUNCTION     0.009    0.110     1  08:46       0.093        1.24       0.052
  Y030542              JUNCTION     0.007    0.025     1  08:22       0.063        0.17       0.136
  Y030543              JUNCTION     0.008    0.218     1  08:21      0.0762        4.57      -0.001
  Y030548              JUNCTION     0.008    0.156     1  08:13      0.0669        2.78      -0.006
  Y030582              JUNCTION     0.006    0.286     1  08:47      0.0535        7.23       0.000
  Y030583              JUNCTION     0.009    0.057     1  08:22      0.0819       0.558       0.000
  Y030585              JUNCTION     0.008    0.048     1  08:23       0.068       0.476       0.001
  Y030587              JUNCTION     0.005    0.020     1  08:22      0.0503       0.177       0.002
  Y030588              JUNCTION     0.009    0.129     1  08:23      0.0738        1.28       0.034
  Y030601              JUNCTION     0.016    0.034     1  08:14       0.186       0.396       0.003
  Y030640              JUNCTION     0.005    0.026     1  08:21      0.0339        0.21       0.004
  Y030711              JUNCTION     0.004    0.088     1  08:05      0.0282        1.18      -0.041
  Y030712              JUNCTION     0.020    0.032     1  08:22       0.184        0.29       0.241
  Y030713              JUNCTION     0.006    0.101     1  08:47      0.0595         1.2       0.269
  Y030795              JUNCTION     0.005    0.166     1  08:10      0.0523        4.44       0.000
  Y030796              JUNCTION     0.013    0.064     1  08:12       0.133       0.567      -0.000
  Y030797              JUNCTION     0.005    0.019     1  08:23      0.0489      0.0987       0.422
  Y030798              JUNCTION     0.010    0.041     1  08:23       0.102       0.408       0.002
  Y030800              JUNCTION     0.004    0.032     1  08:03      0.0278       0.504      -0.003
  Y030801              JUNCTION     0.006    0.069     1  08:09      0.0512       0.369      -0.007
  Y030963              JUNCTION     0.012    0.106     1  10:17       0.108        1.13      -0.013
  Y030969              JUNCTION     0.012    0.012     1  08:22       0.105       0.105       0.297
  Y030971              JUNCTION     0.015    0.015     1  08:47       0.158       0.159      -0.013
  Y030991              JUNCTION     0.012    0.119     1  08:47       0.105        1.35      -0.007
  Y031021              JUNCTION     0.009    0.095     1  08:47      0.0948        1.12       0.001
  Y031068              JUNCTION     0.009    0.191     1  08:57      0.0958        3.35       0.026
  Y031069              JUNCTION     0.007    0.060     1  08:09       0.072       0.581       0.000
  Y031121              JUNCTION     0.012    0.319     1  08:21       0.104        4.97       0.000
  Y031141              JUNCTION     0.012    0.244     1  08:13        0.12        4.11       0.001
  Y031142              JUNCTION     0.020    0.020     1  08:47       0.243       0.243      -0.003
  Y031148              JUNCTION     0.005    0.080     1  08:22      0.0461       0.715      -0.003
  Y031149              JUNCTION     0.010    0.060     1  08:22      0.0942       0.663      -0.000
  Y031152              JUNCTION     0.015    0.250     1  08:11       0.157        6.75      -0.000
  Y031230              JUNCTION     0.006    0.269     1  10:06      0.0394       0.988      -1.949
  Y031236              JUNCTION     0.003    0.157     1  08:19      0.0195        1.56       0.003
  Y031393              JUNCTION     0.006    0.019     1  08:22      0.0437       0.168       0.151
  Y031395              JUNCTION     0.006    0.034     1  08:03       0.051       0.555       0.010
  Y031417              JUNCTION     0.006    0.024     1  09:32      0.0469        0.34       0.012
  Y031418              JUNCTION     0.010    0.143     1  08:46        0.11        1.84       0.156
  Y031419              JUNCTION     0.011    0.760     1  08:24       0.103        13.8       0.001
  Y031420              JUNCTION     0.007    0.128     1  09:55      0.0643        2.19       0.000
  Y031421              JUNCTION     0.009    0.092     1  08:05      0.0717        1.26       0.005
  Y031535              JUNCTION     0.008    0.083     1  08:09      0.0743       0.316      -0.031
  Y031537              JUNCTION     0.012    0.065     1  08:47       0.148       0.729      -0.000
  Y031544              JUNCTION     0.004    0.024     1  08:48      0.0313       0.274       0.005
  Y031581              JUNCTION     0.006    0.055     1  09:44      0.0517       0.878       0.002
  Y031582              JUNCTION     0.003    0.038     1  08:22      0.0176       0.131       0.520
  Y031583              JUNCTION     0.019    0.423     1  08:17        0.21        6.01       0.002
  Y031584              JUNCTION     0.021    0.064     1  08:09       0.241       0.241      -0.025
  Y031610              JUNCTION     0.014    1.661     1  08:47        0.14        23.6       0.001
  Y031614              JUNCTION     0.012    0.076     1  09:23       0.128        1.03       0.116
  Y031730              JUNCTION     0.004    0.004     1  08:21      0.0259      0.0259      -0.017
  Y031737              JUNCTION     0.009    0.020     1  08:12      0.0798       0.194      -0.051
  Y031826              JUNCTION     0.015    0.094     1  08:16       0.149        1.27       0.004
  Y031827              JUNCTION     0.013    0.260     1  08:47       0.151        2.79      -0.001
  Y031829              JUNCTION     0.022    0.022     1  08:47       0.251       0.251       0.233
  Y031830              JUNCTION     0.009    0.308     1  08:21      0.0782        4.87       0.001
  Y031892              JUNCTION     0.004    0.089     1  08:05      0.0264        1.19      -0.002
  Y031893              JUNCTION     0.011    0.126     1  09:56      0.0975        2.13       0.032
  Y031898              JUNCTION     0.009    0.033     1  08:24      0.0813       0.157       0.012
  Y031903              JUNCTION     0.011    0.121     1  08:23      0.0992        1.27       0.057
  Y031999              JUNCTION     0.008    0.173     1  08:22      0.0731        4.51       0.003
  Y032107              JUNCTION     0.004    1.240     1  08:47      0.0235        19.1       0.002
  Y032134              JUNCTION     0.004    0.749     1  08:24      0.0321        13.7       0.001
  Y032136              JUNCTION     0.013    0.013     1  08:47       0.149       0.184       0.411
  Y032230              JUNCTION     0.008    0.030     1  08:46      0.0758       0.325      -0.001
  Y032232              JUNCTION     0.008    0.016     1  08:15      0.0745       0.121       0.015
  Y032273              JUNCTION     0.014    0.021     1  09:32       0.152       0.293      -0.034
  Y032275              JUNCTION     0.012    0.041     1  08:47       0.125       0.496       0.003
  Y032276              JUNCTION     0.014    0.158     1  08:23       0.139        3.77      -0.001
  Y032277              JUNCTION     0.010    0.027     1  08:12      0.0881       0.227       0.119
  Y032283              JUNCTION     0.003    0.044     1  10:06      0.0262       0.432       0.006
  Y032285              JUNCTION     0.006    0.019     1  08:21      0.0512       0.161       0.008
  Y032311              JUNCTION     0.009    0.163     1  10:17      0.0795        4.39       0.001
  Y032312              JUNCTION     0.013    0.235     1  08:13       0.128        3.99       0.000
  Y032313              JUNCTION     0.002    0.192     1  08:56      0.0133        3.37       0.005
  Y032314              JUNCTION     0.006    0.021     1  08:22      0.0517       0.219       0.002
  Y032315              JUNCTION     0.011    0.037     1  08:47       0.107       0.385       0.004
  Y032357              JUNCTION     0.014    0.788     1  08:24       0.146        14.1       0.001
  Y032358              JUNCTION     0.026    0.026     1  08:47       0.371       0.371       0.467
  Y032363              JUNCTION     0.019    0.133     1  08:46       0.209        1.73       0.066
  Y032374              JUNCTION     0.012    0.055     1  09:23       0.111       0.752       0.901
  Y032375              JUNCTION     0.010    0.083     1  09:23      0.0942        1.13       0.025
  Y032607              JUNCTION     0.010    1.670     1  08:47      0.0953        23.7       0.001
  Y032608              JUNCTION     0.007    0.057     1  08:21      0.0596       0.491       0.001
  Y032611              JUNCTION     0.006    0.397     1  08:17      0.0561        5.71      -0.001
  Y032701              JUNCTION     0.014    0.016     1  08:05       0.137       0.137      -0.004
  Y032719              JUNCTION     0.014    0.774     1  08:24       0.143          14       0.001
  Y032731              JUNCTION     0.019    0.280     1  08:18       0.193        4.61       0.001
  Y032741              JUNCTION     0.016    0.225     1  08:13       0.171        3.86      -0.008
  Y032747              JUNCTION     0.007    0.144     1  08:46       0.063        1.73       0.058
  Y032760              JUNCTION     0.003    0.035     1  08:03      0.0186       0.573       0.001
  Y032829              JUNCTION     0.005    0.043     1  08:24      0.0441       0.427      -0.002
  Y032839              JUNCTION     0.009    0.067     1  09:23      0.0973       0.906       0.257
  Y032897              JUNCTION     0.010    0.023     1  08:14        0.11       0.213       0.533
  Y032936              JUNCTION     0.005    0.035     1  08:21       0.037       0.144       0.050
  Y032937              JUNCTION     0.011    0.119     1  07:48       0.119        1.24       0.008
  Y032938              JUNCTION     0.012    0.185     1  08:13       0.105        2.73       0.027
  Y033129              JUNCTION     0.005    0.021     1  08:05      0.0439      0.0454      -0.037
  Y033131              JUNCTION     0.019    0.071     1  09:44       0.254        1.12       0.003
  Y033133              JUNCTION     0.003    0.071     1  08:04      0.0185       0.978       0.299
  Y033153              JUNCTION     0.012    0.059     1  08:45        0.12        1.03       0.007
  Y033202              JUNCTION     0.005    0.116     1  08:22      0.0363        1.32       0.010
  Y033204              JUNCTION     0.008    0.267     1  08:13      0.0738        4.43      -0.010
  Y033275              JUNCTION     0.005    0.043     1  08:09      0.0375       0.378      -0.000
  Y033307              JUNCTION     0.004    0.024     1  08:24      0.0309      0.0874      -0.022
  Y033332              JUNCTION     0.006    0.014     1  08:21      0.0494       0.126       0.002
  Y033333              JUNCTION     0.027    0.270     1  08:47       0.309        7.06       0.001
  Y033338              JUNCTION     0.023    0.102     1  08:24       0.262       0.394       0.010
  Y033431              JUNCTION     0.004    0.041     1  08:22      0.0295        0.42       0.001
  Y033479              JUNCTION     0.007    0.235     1  08:47      0.0627        2.51       0.002
  Y033523              JUNCTION     0.024    0.114     1  08:19       0.257        1.53       0.048
  Y033526              JUNCTION     0.008    0.384     1  08:24      0.0771        5.65       0.000
  Y033528              JUNCTION     0.004    0.024     1  08:20      0.0264       0.245       0.002
  Y033578              JUNCTION     0.012    0.180     1  08:14       0.117       0.539       0.028
  Y033580              JUNCTION     0.006    0.266     1  08:47      0.0563        3.68      -0.089
  Y033666              JUNCTION     0.003    0.239     1  08:47      0.0253        4.31       0.015
  Y033681              JUNCTION     0.002    0.045     1  08:23      0.0138       0.439      -0.005
  Y033682              JUNCTION     0.005    0.070     1  08:04      0.0349        1.05       0.145
  Y033683              JUNCTION     0.017    0.017     1  08:24        0.17        0.17       0.004
  Y033721              JUNCTION     0.011    0.037     1  08:24       0.107       0.383      -0.003
[...]
  Cond1659                    1.54      1.54      1.68      0.01         0.08
  Cond1660                    1.45      1.45      1.92      0.01         0.01
  Cond1662                    1.70      1.82      1.70      2.53         1.70
  Cond1663                    0.46      0.46      0.73      0.01         0.01
  Cond1664                    2.93      2.93      6.08      0.01         0.01
  Cond1673                    0.13      0.13      0.64      0.01         0.01
  Cond1678                    1.08      1.08      1.29      0.01         0.01
  Cond1679                    1.45      1.45      1.67      2.24         0.01
  Cond1704                    1.67      1.67      2.54      0.01         0.01
  Cond1715                    2.89      2.89      3.02      0.01         0.01
  Cond1728                    3.47      3.47      6.08      0.01         0.01
  Cond1734                    2.79      2.79      4.12      0.01         0.01
  Cond1735                    5.06      5.06      5.15      0.01         0.01
  Cond1743                    1.19      1.19      2.22      0.01         0.01
  Cond1795                    2.60      2.60      2.68      0.01         0.01
  Cond1836                    1.44      1.70      1.44      3.09         1.44
  Cond1857                    2.54      2.54      2.60      0.01         0.01
  Cond1866                    5.28      5.28     65.16      0.01         0.01
  Cond1867                    3.32      3.32      5.60      0.01         0.01
  Cond1868                    5.64      5.64      5.78      0.01         0.01
  Cond1870                    3.19      3.32      3.19      8.57         3.14
  Cond1893                    0.01      0.01      2.04      0.01         0.01
  Cond1894                    2.76      2.76      2.79      0.93         0.88
  Cond1896                    3.39      3.39      3.51      1.28         1.35
  Cond1898                    2.94      2.94      3.79      0.01         0.01
  Cond1899                    5.24      5.24      5.45      0.01         0.01
  Cond1908                    1.38      1.38      5.94      0.01         0.01
  Cond1925                    3.46      3.46      3.67      0.01         0.46
  Cond1958                    3.34      3.34      7.40      0.15         0.01
  Cond1959                    1.73      1.73      1.83      0.01         0.01
  Cond1960                    5.08      5.08     65.16      0.01         0.01
  Cond1992                    5.80      5.80      5.82      2.61         2.71
  Cond1993                    1.63      1.64      1.63      0.89         0.11
  Cond1994                    3.40      3.40      4.00      0.01         0.01
  Cond1995                    3.11      3.11      3.39      0.01         0.01
  Cond1997                    2.82      2.82      3.02      0.01         0.01
  Cond1998                    2.71      2.71      3.82      0.01         0.01
  Cond2065                    1.35      1.35      2.00      0.01         0.01
  Cond2072                    1.83      1.83      1.87      0.01         0.03
  Cond2073                    5.18      5.18      5.48      0.01         0.01
  Cond2079                    2.05      2.05      5.66      0.01         0.01
  Cond2093                    1.68      1.68      2.19      0.01         0.01
  Cond2113                    5.31      5.32      5.31      9.65         5.21
  Cond2114                    2.92      2.92      2.94      0.01         0.85
  Cond2132                    1.43      1.75      1.43      2.71         1.43
  Cond2141                    2.93      3.00      2.93      9.24         2.93
  Cond2142                    2.39      2.39      2.47      0.01         0.01
  Cond2144                    5.12      5.12      5.48      0.01         0.01
  Cond2145                    3.97      3.97      5.52      0.01         0.01
  Cond2148                    5.76      5.76      5.93      5.30         5.29
  Cond2172                    1.54      1.56      1.64      0.01         0.01
  Cond2179                    5.65      5.71      5.65      8.57         2.29
  Cond2212                    2.78      2.78      7.87      0.01         0.01
  Cond2214                    2.95      2.95      3.02      0.01         0.01
  Cond2227                    3.82      3.82      5.04      0.01         0.01
  Cond2228                    2.95      2.95      5.21      0.01         0.01
  Cond2229                    1.99      1.99      2.06      1.31         1.31
  Cond2230                    3.13      3.13      3.40      0.01         0.01
  Cond2231                    2.60      3.17      2.60      5.67         1.54
  Cond2288                    2.65      2.65      2.71      0.01         0.04
  Cond2290                    3.24      3.24      4.03      0.01         0.01
  Cond2294                    2.47      2.47      2.54      0.01         0.01
  Cond2295                    3.90      3.90      4.48      0.01         0.01
  Cond2296                    3.67      3.67     19.28      0.01         0.01
  Cond2297                    1.78      1.78      1.88      0.01         0.02
  Cond2298                    2.31      2.31      2.65      0.01         0.01
  Cond2318                    0.01      1.44      0.01      3.32         0.01
  Cond2321                    2.88      2.88      2.91      0.01         0.01
  Cond2351                    0.01      0.01      0.64      0.01         0.01
  Cond2358                    3.32      3.32      6.30      0.01         0.01
  Cond2392                    3.06      3.06      4.88      0.01         0.01
  Cond2393                    1.64      1.64      2.52      0.01         0.06
  Cond2396                    3.07      3.07      6.82      0.01         0.01
  Cond2397                    1.75      1.92      1.75      2.69         1.75
  Cond2441                    3.17      3.34      3.17      8.98         2.56
  Cond2442                    3.13      3.13      3.40      0.01         0.01
  Cond2447                    1.05      1.05      1.19      0.01         0.01
  Cond2452                    5.28      5.28      5.45      0.01         0.01
  Cond2491                    5.82      5.82      6.11      5.12         0.01
  Cond2533                    1.82      2.30      1.82      6.17         1.82
  Cond2542                    1.99      2.04      1.99      2.83         1.99
  Cond2544                    2.95      2.95      4.00      0.01         0.01
  Cond2586                    1.26      1.26      1.54      0.01         0.01
  Cond2588                    0.64      0.64      1.25      0.01         0.01
  Cond2593                    2.95      2.95      3.82      0.01         0.01
  Cond2595                    3.77      3.77      3.90      0.01         0.01
  Cond2596                    5.27      5.27      5.48      0.01         0.01
  Cond2597                    6.30      6.30      7.40      0.01         0.01
  Cond2602                    0.20      0.20      1.56      0.01         0.01
  Cond2604                    3.02      3.02      3.04      0.01         0.47
  Cond2611                    5.80      5.80      5.80      5.48         3.82
  Cond2612                    2.97      2.97      3.00      2.80         2.77
  Cond2613                    5.28      5.28      5.74      0.01         0.01
  Cond2614                    3.51      3.52      3.53      2.91         2.58
  Cond2615                    2.79      2.79      3.71      0.01         0.01
  Cond2627                    2.29      2.29      2.30      2.19         2.17
  Cond2629                    2.93      2.93      3.67      0.01         0.01
  Cond2633                    5.01      5.01     10.99      0.01         0.01
  Cond2635                    6.08      6.08      6.08      2.34         2.12
  Cond2636                    3.06      3.06      3.24      0.01         0.01
  Cond2727                    3.67      3.67      4.67      0.01         0.01
  Cond2730                    1.47      1.47      1.61      0.01         0.01
  Cond2784                    2.82      2.82      2.96      0.01         0.01
  Cond2801                    2.06      2.06      2.29      0.01         0.02
  Cond2807                    2.26      2.66      2.26      4.24         2.26
  Cond2814                    2.97      3.01      2.97      9.01         2.97
  Cond2816                    2.00      2.00      2.31      0.01         0.01
  Cond2826                    2.95      2.95      2.98      0.01         0.12
  Cond2851                    1.13      1.13      5.16      0.01         0.01
  Cond2854                    2.91      2.91      3.05      0.01         0.01
  Cond2869                    1.52      1.52      1.73      0.01         0.01
  Cond2890                    3.67      3.67      5.60      0.01         0.01
  Cond2891                    5.27      5.27      5.69      0.01         0.01
  Cond2892                    2.77      2.77      2.77      7.72         2.51
  Cond2951                    1.95      1.95      2.97      0.01         0.01
  Cond2953                    5.05      5.05      5.55      0.01         0.01
  Cond2954                    7.40      7.40     67.83      0.01         0.01
  Cond2956                    4.40      4.81      4.40     10.42         4.40
  Cond2974                    6.24      6.24      6.69      2.34         1.51
  Cond2976                    2.66      2.86      2.66      4.10         2.66
  Cond3006                    2.88      2.88      2.94      0.01         0.39
  Cond3007                    2.88      2.88      3.92      0.01         0.01
  Cond3016                    0.13      0.13      1.05      0.01         0.01
  Cond3025                    2.21      2.21      2.94      0.01         0.01
  Cond3026                    0.01      6.29      0.01      7.89         0.01
  Cond3031                    0.34      0.34      0.90      0.01         0.01
  Cond3085                    2.68      2.68      2.73      0.01         0.01
  Cond3099                    1.40      1.40      1.69      0.54         0.57
  Cond3126                    4.88      4.88      5.01      2.17         2.33
  Cond3129                    0.90      0.90      1.95      0.01         0.01
  Cond3131                    3.53      3.53      4.94      0.01         0.01
  Cond3148                    1.06      1.06      1.56      0.01         0.01
  Cond3150                    2.52      2.52      2.93      0.01         0.10
  Cond3185                    5.27      5.28      5.27      5.34         5.16
  Cond3189                    2.89      2.89      5.28      0.01         0.01
  Cond3190                    7.87      7.87     67.83      0.01         0.01
  Cond3191                    3.48      3.48      3.52      2.50         2.42
  Cond3202                    1.13      1.13      1.13      0.97         0.77
  Cond3205                    1.94      1.94      2.19      0.01         0.01
  Cond3212                    2.11      2.11      2.27      0.01         0.01
  Cond3233                    3.09      3.09      4.67      0.01         0.01
  Cond3237                    2.95      2.95      3.17      0.01         0.01
  Cond3238                    0.01      0.01      1.20      0.01         0.01
  Cond3242                    5.08      5.08      5.08      0.64         2.12
  Cond3297                    2.98      2.98      4.81      0.01         0.01
  Cond3298                    4.67      4.67      5.06      0.01         0.01
  Cond3315                    2.25      2.27      2.25      7.42         2.20
  Cond3316                    0.90      1.20      0.90     10.27         0.90
  Cond3317                    5.12      5.12      5.32      0.01         0.01
  Cond3359                    2.97      2.97      3.29      0.01         0.01
  Cond3362                    3.40      3.40      3.40      0.65         1.76
  Cond3363                    5.24      5.24      5.32      0.01         0.01
  Cond3364                    3.90      3.90      4.10      0.01         0.01
  Cond3440                    3.51      3.51      5.03      0.01         0.01
  Cond3452                    1.04      1.04      1.08      0.01         0.03
  Cond3455                    5.78      5.78      5.80      5.43         5.10
  Cond3474                    0.01      1.18      0.01      2.74         0.01
  Cond3476                    1.88      1.88      1.88      1.93         1.83
  Cond3495                    1.40      1.40      1.45      0.79         0.01
  Cond3497                    1.64      1.69      1.64      7.51         1.64
  Cond3501                    1.20      1.20      1.43      0.01         0.01
  Cond3505                    1.38      1.38      1.45      0.01         0.01
  Cond3525                    2.05      2.05      2.51      0.01         0.01
  Cond3544                    5.78      5.78      6.01      3.37         0.01
  Cond3577                    2.89      2.89      3.71      0.01         0.01
  Cond3585                    5.14      5.15      5.15      5.17         4.93
  Cond3586                    2.96      2.96      3.11      0.01         0.01
  Cond3596                    2.92      2.92      2.92      0.01         1.09
  Cond3597                    1.92      1.97      1.92      2.64         1.90
  Cond3598                    3.17      3.17      3.29      0.01         0.02
  Cond3628                    5.22      5.22      5.64      0.01         0.01
  Cond3664                    1.61      1.61      2.11      0.01         0.01
  Cond3665                    2.73      2.73      2.76      0.72         0.67
  Cond3666                    5.15      5.15      5.32      0.01         0.40
  Cond3733                    2.22      2.25      2.22      7.98         1.96
  Cond3734                    3.23      3.24      3.23      0.01         1.54
  Cond3745                    4.94      4.94      7.44      0.01         0.01
  Cond3748                    1.63      1.63      1.82      0.01         0.01
  Cond3750                    1.18      1.43      1.18      2.73         1.18
  Cond3751                    5.06      5.06      5.12      0.01         0.29
  Cond3760                    3.05      3.05      3.23      0.01         0.01
  Cond3796                    3.01      3.15      3.01     10.26         3.01
  Cond3797                    5.60      5.60      5.60      1.71         1.51
  Cond3798                    4.48      4.48      5.05      0.01         0.01
  Cond3802                    1.69      1.69      1.73      0.01         0.08
  Cond3897                    0.01      0.01      2.93      1.07         0.01
  Cond3933                    1.35      1.35      1.64      0.01         0.01
  Cond3956                    3.40      3.40      5.06      0.01         0.01
  Cond3986                    3.40      3.40      3.40      0.01         1.65
  Cond3987                    3.17      3.17      4.10      0.01         0.01
  Cond3999                    2.86      2.93      2.86      3.98         2.86
  Cond4005                    2.31      2.31      2.54      0.01         0.01
  Cond4007                    0.73      0.73      1.06      0.01         0.01
  Cond4011                    1.61      1.61      1.69      0.01         0.01
  Cond4023                    1.94      1.94      2.51      0.01         0.01
  Cond4183                    7.31      7.31      7.87      1.69         1.82
  Cond4184                    6.69      6.69      6.91      2.29         1.65
  Cond4185                    6.91      6.91      7.31      1.97         1.67
  Cond4187                    3.15      3.19      3.15      8.68         3.15
  Cond4278                    1.03      1.03      1.52      0.01         0.01
  Cond4336                    0.01      0.01      7.08      0.01         0.01
  Cond4338                    0.01      0.01      7.08      0.01         0.01
  Cond4354                    5.20      5.21      5.20      5.26         2.96
  Cond4355                    5.20      5.20      5.26      0.01         0.01
  Cond4356                    5.26      5.26      5.28      0.01         0.72
  Cond4357                    5.28      5.28      5.32      0.01         0.27
  Cond4417                    1.24      1.24      1.27      0.01         0.01
  Cond4418                    1.27      1.27      1.30      0.01         0.01
  Cond4419                    1.30      1.30      1.44      0.01         0.01
  Cond4420                    1.44      1.44      1.44      0.35         0.65
  Cond4421                    1.44      1.44      1.44      2.43         1.43
  Cond4422                    1.44      1.44      1.45      0.01         0.02
  Cond4423                    1.45      1.45      1.46      1.24         1.20
  Cond4425                    1.45      1.46      1.45      1.83         1.44
  Cond4426                    1.45      1.45      1.46      1.38         1.38
  Cond4427                    1.46      1.46      1.53      0.01         0.01
  Cond4428                    1.50      1.53      1.50      1.81         1.50
  Cond4429                    1.47      1.50      1.47      2.48         1.47
  Cond4430                    1.47      1.47      1.59      0.98         0.97
  Cond4431                    1.59      1.59      1.66      1.33         1.33
  Cond4432                    1.62      1.66      1.62      1.83         1.62
  Cond4433                    0.54      1.62      0.54      3.37         0.54
  Cond4434                    0.01      0.55      0.01      2.49         0.01
  Cond4436                    0.01      0.01      0.01      1.38         0.01
  Cond4438                    0.01      0.01      3.16      0.01         0.01
  Cond4446                    0.81      0.81      1.12      0.01         0.01
  Cond4447                    0.77      0.77      1.16      0.01         0.01
  Cond4448                    0.98      0.98      1.03      0.01         0.01
  Cond4449                    1.03      1.03      1.24      0.01         0.01
  Cond4501                    5.76      5.78      5.76      6.18         5.76
  Cond4502                    1.56      1.56      1.60      0.01         0.01
  Cond4503                    0.38      0.38      0.46      0.01         0.01
  Cond4504                    1.49      1.49      1.60      0.01         0.01
  Cond4505                    0.38      0.38      0.85      0.01         0.01
  Cond4506                    1.02      1.02      1.04      0.06         0.01
  Cond4507                    5.77      5.77      5.80      2.56         2.61
  Cond4508                    5.69      5.69      5.75      0.01         0.02
  Cond4509                    5.93      5.93      6.02      1.74         1.77
  Cond4510                    6.01      6.02      6.01      8.13         5.25
  Cond4511                    5.71      5.72      5.82      0.01         0.01
  Cond4512                    5.68      5.68      5.72      1.12         0.10
  Cond4513                    5.52      5.52      5.68      0.01         0.01
  Cond4514                    5.80      5.80      5.93      0.01         0.09
  Cond4515                    5.75      5.75      5.77      1.34         1.14
  Cond4538                    2.19      2.19      2.65      0.01         0.01
  Cond4566                    2.98      2.98      3.07      0.01         0.01
  Cond4612                    2.99      2.99      3.09      0.01         0.06
  Cond4613                    2.79      2.79      2.99      0.01         0.01
  Cond5001                    0.09      0.09      0.20      0.01         0.01
  Cond5073                    4.40      4.40      6.24      0.01         0.01
  Cond2726                    0.01      0.01      0.01      1.01         0.01
  

  Analysis begun on:  Thu Jun 20 23:04:04 2024
  Analysis ended on:  Thu Jun 20 23:04:34 2024
  Total elapsed time: 00:00:30