
  EPA STORM WATER MANAGEMENT MODEL - VERSION 5.2 (Build 5.2.4)
  ------------------------------------------------------------

  WARNING 04: minimum elevation drop used for Conduit xzq8
  WARNING 04: minimum elevation drop used for Conduit wq1
  WARNING 04: minimum elevation drop used for Conduit zbq1
  WARNING 04: minimum elevation drop used for Conduit zbq2
  WARNING 04: minimum elevation drop used for Conduit zjq3
  WARNING 04: minimum elevation drop used for Conduit ndq6
  WARNING 04: minimum elevation drop used for Conduit ydq1
  WARNING 04: minimum elevation drop used for Conduit ydq2
  WARNING 04: minimum elevation drop used for Conduit ydq3
  WARNING 04: minimum elevation drop used for Conduit ydq4
  WARNING 04: minimum elevation drop used for Conduit ydq7
  WARNING 04: minimum elevation drop used for Conduit ydq9
  WARNING 04: minimum elevation drop used for Conduit ycq2
  WARNING 04: minimum elevation drop used for Conduit jyq3
  WARNING 04: minimum elevation drop used for Conduit byq39
  WARNING 04: minimum elevation drop used for Conduit byq24
  WARNING 04: minimum elevation drop used for Conduit PFG1
  WARNING 04: minimum elevation drop used for Conduit WEG9
  WARNING 02: maximum depth increased for Node WYH4
  WARNING 02: maximum depth increased for Node WYH7
  WARNING 02: maximum depth increased for Node WYH10
  WARNING 02: maximum depth increased for Node WYH11
  WARNING 02: maximum depth increased for Node WYH12
  WARNING 02: maximum depth increased for Node WYH14
  WARNING 02: maximum depth increased for Node BH1
  WARNING 02: maximum depth increased for Node BH2
  WARNING 02: maximum depth increased for Node XCG1
  WARNING 02: maximum depth increased for Node XCG2
  WARNING 02: maximum depth increased for Node XZH6
  WARNING 02: maximum depth increased for Node XSG1
  WARNING 02: maximum depth increased for Node XSG3
  WARNING 02: maximum depth increased for Node XSG4
  WARNING 02: maximum depth increased for Node ZBH4
  WARNING 02: maximum depth increased for Node YYH1
  WARNING 02: maximum depth increased for Node YYH2
  WARNING 02: maximum depth increased for Node XYG1
  WARNING 02: maximum depth increased for Node XYG2
  WARNING 02: maximum depth increased for Node ZYG1
  WARNING 02: maximum depth increased for Node ZYG2
  WARNING 02: maximum depth increased for Node ZYG3
  WARNING 02: maximum depth increased for Node ZYG4
  WARNING 02: maximum depth increased for Node ZYG5
  WARNING 02: maximum depth increased for Node ZYG6
  WARNING 02: maximum depth increased for Node ZYG7
  WARNING 02: maximum depth increased for Node ZJG1
  WARNING 02: maximum depth increased for Node ZJG2
  WARNING 02: maximum depth increased for Node ZJG4
  WARNING 02: maximum depth increased for Node ZJG6
  WARNING 02: maximum depth increased for Node ZJG7
  WARNING 02: maximum depth increased for Node ZJG8
  WARNING 02: maximum depth increased for Node ZJG10
  WARNING 02: maximum depth increased for Node ZJG12
  WARNING 02: maximum depth increased for Node ZJG13
  WARNING 02: maximum depth increased for Node ZJG14
  WARNING 02: maximum depth increased for Node ZJG16
  WARNING 02: maximum depth increased for Node ZJG17
  WARNING 02: maximum depth increased for Node ZJG19
  WARNING 02: maximum depth increased for Node ZJG20
  WARNING 02: maximum depth increased for Node ZJG22
  WARNING 02: maximum depth increased for Node YDH3
  WARNING 02: maximum depth increased for Node YDH4
  WARNING 02: maximum depth increased for Node YDH6
  WARNING 02: maximum depth increased for Node YDH7
  WARNING 02: maximum depth increased for Node YDH8
  WARNING 02: maximum depth increased for Node YDH10
  WARNING 02: maximum depth increased for Node YDH11
  WARNING 02: maximum depth increased for Node YDH12
  WARNING 02: maximum depth increased for Node XTHH1
  WARNING 02: maximum depth increased for Node XTHH2
  WARNING 02: maximum depth increased for Node XTHH3
  WARNING 02: maximum depth increased for Node XTHH4
  WARNING 02: maximum depth increased for Node XTHH7
  WARNING 02: maximum depth increased for Node XTHH8
  WARNING 02: maximum depth increased for Node XTHH10
  WARNING 02: maximum depth increased for Node XTHH11
  WARNING 02: maximum depth increased for Node XTHH12
  WARNING 02: maximum depth increased for Node XTHH13
  WARNING 02: maximum depth increased for Node LSH2
  WARNING 02: maximum depth increased for Node LSH3
  WARNING 02: maximum depth increased for Node LSH4
  WARNING 02: maximum depth increased for Node LSH6
  WARNING 02: maximum depth increased for Node LSH8
  WARNING 02: maximum depth increased for Node LSH9
  WARNING 02: maximum depth increased for Node LSH10
  WARNING 02: maximum depth increased for Node LSH11
  WARNING 02: maximum depth increased for Node LSH13
  WARNING 02: maximum depth increased for Node YCJH3
  WARNING 02: maximum depth increased for Node CSG1
  WARNING 02: maximum depth increased for Node CSG2
  WARNING 02: maximum depth increased for Node FZG2
  WARNING 02: maximum depth increased for Node FZG3
  WARNING 02: maximum depth increased for Node FZG4
  WARNING 02: maximum depth increased for Node KYG1
  WARNING 02: maximum depth increased for Node YWG2
  WARNING 02: maximum depth increased for Node WXG4
  WARNING 02: maximum depth increased for Node WXG6
  WARNING 02: maximum depth increased for Node KTG4
  WARNING 02: maximum depth increased for Node HXG2
  WARNING 02: maximum depth increased for Node HXG7
  WARNING 02: maximum depth increased for Node XLG2
  WARNING 02: maximum depth increased for Node XLG3
  WARNING 02: maximum depth increased for Node DCG2
  WARNING 02: maximum depth increased for Node WJG1
  WARNING 02: maximum depth increased for Node WJG5
  WARNING 02: maximum depth increased for Node XHLBG8
  WARNING 02: maximum depth increased for Node SYG1
  WARNING 02: maximum depth increased for Node YNG10
  WARNING 02: maximum depth increased for Node BYH1
  WARNING 02: maximum depth increased for Node BYH2
  WARNING 02: maximum depth increased for Node BYH3
  WARNING 02: maximum depth increased for Node BYH4
  WARNING 02: maximum depth increased for Node BYH6
  WARNING 02: maximum depth increased for Node BYH7
  WARNING 02: maximum depth increased for Node BYH8
  WARNING 02: maximum depth increased for Node BYH9
  WARNING 02: maximum depth increased for Node BYH10
  WARNING 02: maximum depth increased for Node BYH11
  WARNING 02: maximum depth increased for Node BYH12
  WARNING 02: maximum depth increased for Node BYH13
  WARNING 02: maximum depth increased for Node BYH15
  WARNING 02: maximum depth increased for Node BYH17
  WARNING 02: maximum depth increased for Node BYH21
  WARNING 02: maximum depth increased for Node BYH22
  WARNING 02: maximum depth increased for Node BYH26
  WARNING 02: maximum depth increased for Node BYH27
  WARNING 02: maximum depth increased for Node CBH4
  WARNING 02: maximum depth increased for Node CBH5
  WARNING 02: maximum depth increased for Node CBH6
  WARNING 02: maximum depth increased for Node CBH7
  WARNING 02: maximum depth increased for Node CBH9
  WARNING 02: maximum depth increased for Node CBH10
  WARNING 02: maximum depth increased for Node CBH11
  WARNING 02: maximum depth increased for Node CBH12
  WARNING 02: maximum depth increased for Node CBH13
  WARNING 02: maximum depth increased for Node CBH14
  WARNING 02: maximum depth increased for Node CBH15
  WARNING 02: maximum depth increased for Node CBH16
  WARNING 02: maximum depth increased for Node CBH19
  WARNING 02: maximum depth increased for Node CBH20
  WARNING 02: maximum depth increased for Node PGG1
  WARNING 02: maximum depth increased for Node PGG2
  WARNING 02: maximum depth increased for Node PGG4
  WARNING 02: maximum depth increased for Node THH1
  WARNING 02: maximum depth increased for Node THH2
  WARNING 02: maximum depth increased for Node THH4
  WARNING 02: maximum depth increased for Node THH5
  WARNING 02: maximum depth increased for Node THH6
  WARNING 02: maximum depth increased for Node THH8
  WARNING 02: maximum depth increased for Node NDG1
  WARNING 02: maximum depth increased for Node NDG2
  WARNING 02: maximum depth increased for Node NDG3
  WARNING 02: maximum depth increased for Node NDG5
  WARNING 02: maximum depth increased for Node NDG7
  WARNING 02: maximum depth increased for Node NDG8
  WARNING 02: maximum depth increased for Node NDG9
  WARNING 02: maximum depth increased for Node YLG3
  WARNING 02: maximum depth increased for Node BYH30
  WARNING 02: maximum depth increased for Node BYH31
  WARNING 02: maximum depth increased for Node BYH32
  WARNING 02: maximum depth increased for Node BYH33
  WARNING 02: maximum depth increased for Node BYH34
  WARNING 02: maximum depth increased for Node BYH35
  
  ****************
  Analysis Options
  ****************
  Flow Units ............... CMS
  Process Models:
    Rainfall/Runoff ........ YES
    RDII ................... NO
    Snowmelt ............... NO
    Groundwater ............ NO
    Flow Routing ........... YES
    Ponding Allowed ........ NO
    Water Quality .......... NO
  Infiltration Method ...... HORTON
  Flow Routing Method ...... DYNWAVE
  Surcharge Method ......... EXTRAN
  Starting Date ............ 07/21/2012 00:00:00
  Ending Date .............. 07/25/2012 00:00:00
  Antecedent Dry Days ...... 0.0
  Report Time Step ......... 00:30:00
  Wet Time Step ............ 00:05:00
  Dry Time Step ............ 01:00:00
  Routing Time Step ........ 60.00 sec
  Variable Time Step ....... YES
  Maximum Trials ........... 8
  Number of Threads ........ 1
  Head Tolerance ........... 0.001500 m
  
  
  **************************        Volume         Depth
  Runoff Quantity Continuity     hectare-m            mm
  **************************     ---------       -------
  Total Precipitation ......      5630.918       137.681
  Evaporation Loss .........         0.000         0.000
  Infiltration Loss ........      3747.057        91.619
  Surface Runoff ...........      1873.031        45.797
  Final Storage ............        11.361         0.278
  Continuity Error (%) .....        -0.009
  
  
  **************************        Volume        Volume
  Flow Routing Continuity        hectare-m      10^6 ltr
  **************************     ---------     ---------
  Dry Weather Inflow .......         0.000         0.000
  Wet Weather Inflow .......      1872.164     18721.831
  Groundwater Inflow .......         0.000         0.000
  RDII Inflow ..............         0.000         0.000
  External Inflow ..........     13117.218    131173.544
  External Outflow .........     11424.769    114248.882
  Flooding Loss ............      1815.424     18154.427
  Evaporation Loss .........         0.000         0.000
  Exfiltration Loss ........         0.000         0.000
  Initial Stored Volume ....         0.059         0.590
  Final Stored Volume ......      1731.079     17310.971
  Continuity Error (%) .....         0.121
  
  
  *************************
  Highest Continuity Errors
  *************************
  Node BH2 (12.49%)
  Node THH3 (11.27%)
  Node THH4 (10.17%)
  Node THH2 (10.15%)
  Node XCG2 (9.82%)
  
  
  ***************************
  Time-Step Critical Elements
  ***************************
  Link PFG1 (98.24%)
  Link wjq3 (1.10%)
  
  
  ********************************
  Highest Flow Instability Indexes
  ********************************
  Link WE7 (38)
  Link WE6 (24)
  Link lsq3 (20)
  Link xzq7 (19)
  Link lsq2 (13)
  
  
  *********************************
  Most Frequent Nonconverging Nodes
  *********************************
  Node PFK1 (0.62%)
  Node PFK2 (0.62%)
  Node LSH3 (0.62%)
  Node LSH4 (0.14%)
  Node YCJH1 (0.00%)
  
  
  *************************
  Routing Time Step Summary
  *************************
  Minimum Time Step           :     1.15 sec
  Average Time Step           :     4.29 sec
  Maximum Time Step           :    60.00 sec
  % of Time in Steady State   :     0.00
  Average Iterations per Step :     2.60
  % of Steps Not Converging   :     0.62
  Time Step Frequencies       :
     60.000 - 23.031 sec      :     1.25 %
     23.031 -  8.841 sec      :     2.32 %
      8.841 -  3.393 sec      :    38.95 %
      3.393 -  1.303 sec      :    57.48 %
      1.303 -  0.500 sec      :     0.00 %
  
  
  ***************************
  Subcatchment Runoff Summary
  ***************************
  
  ------------------------------------------------------------------------------------------------------------------------------
                            Total      Total      Total      Total     Imperv       Perv      Total       Total     Peak  Runoff
                           Precip      Runon       Evap      Infil     Runoff     Runoff     Runoff      Runoff   Runoff   Coeff
  Subcatchment                 mm         mm         mm         mm         mm         mm         mm    10^6 ltr      CMS
  ------------------------------------------------------------------------------------------------------------------------------
  CB1                      137.68       0.00       0.00     103.62      22.02      11.83      33.85      348.20    25.44   0.246
  CB2                      137.68       0.00       0.00      94.22      23.21      20.05      43.25      242.79    21.03   0.314
  CB3                      137.68       0.00       0.00      95.74      20.72      21.04      41.76       99.03     8.84   0.303
  CB4                      137.68       0.00       0.00     108.30      14.18      15.06      29.25      234.06    19.19   0.212
  CB5                      137.68       0.00       0.00      96.10      17.57      23.86      41.43      181.30    17.36   0.301
  CB6                      137.68       0.00       0.00     103.19      19.55      14.76      34.31      161.51    12.76   0.249
  CB7                      137.68     124.35       0.00     141.95       5.88     114.18     120.06      276.97    22.75   0.458
  CB8                      137.68       0.00       0.00      95.82      18.00      23.71      41.71      136.93    13.04   0.303
  CB9                      137.68       0.00       0.00      59.97      61.40      15.74      77.14      281.44    20.79   0.560
  CB10                     137.68       0.00       0.00      61.72      54.51      20.96      75.47      137.64    11.41   0.548
  CB11                     137.68       0.00       0.00      77.62      42.56      17.11      59.66      228.06    17.64   0.433
  CB12                     137.68       0.00       0.00      86.44      38.25      12.63      50.88      155.19    10.86   0.370
  CB13                     137.68      60.80       0.00     117.84      31.94      48.51      80.45      507.10    38.49   0.405
  CB14                     137.68      85.18       0.00     122.87       6.75      93.22      99.98      125.00    12.31   0.449
  CB15                     137.68      20.10       0.00      97.31      26.21      34.06      60.27      106.50     9.69   0.382
  CB16                     137.68     208.97       0.00     143.39      11.62     191.63     203.25      143.82    11.81   0.586
  CB17                     137.68       0.00       0.00      59.37      56.61      21.20      77.80       35.52     2.96   0.565
  CB18                     137.68       0.00       0.00      56.21      63.55      17.34      80.89      125.35     9.64   0.588
  CB19                     137.68       0.00       0.00      77.28      39.72      20.32      60.04      147.87    12.30   0.436
  CB20                     137.68       0.00       0.00      74.15      44.25      18.88      63.13      123.90     9.94   0.459
  CB21                     137.68       0.00       0.00      96.08      10.85      30.67      41.52       39.80     4.48   0.302
  CB22                     137.68       0.00       0.00     106.63       2.74      28.30      31.04       57.41     6.69   0.225
  CB23                     137.68       0.00       0.00     100.76      14.60      22.19      36.79      178.45    16.84   0.267
  CB24                     137.68       0.00       0.00     105.96       4.94      26.75      31.69       82.80     9.19   0.230
  CB25                     137.68       0.00       0.00      79.84      37.69      19.81      57.50      226.64    18.73   0.418
  CB26                     137.68       0.00       0.00      98.43      18.10      20.99      39.09       93.85     8.48   0.284
  CB27                     137.68       0.00       0.00      71.20      44.37      21.71      66.09       93.67     7.95   0.480
  CB28                     137.68      20.09       0.00     103.87       0.74      53.18      53.92       28.13     3.60   0.342
  CB29                     137.68       0.00       0.00     105.07       3.25      29.35      32.59       34.01     4.01   0.237
  CB30                     137.68       0.00       0.00      93.90       4.90      38.86      43.76       10.48     1.39   0.318
  CB31                     137.68       0.00       0.00      82.36      27.25      27.83      55.09       49.18     4.84   0.400
  CB32                     137.68       0.00       0.00      97.48      19.66      20.36      40.03       86.29     7.64   0.291
  CB33                     137.68      50.29       0.00      72.50      79.18      35.76     114.94      214.08    16.43   0.611
  CB34                     137.68       0.00       0.00      91.22      16.56      29.77      46.33       25.15     2.69   0.336
  CB35                     137.68       0.00       0.00      83.97      27.25      26.22      53.47       93.39     8.95   0.388
  CB36                     137.68       0.00       0.00     108.17       7.34      22.11      29.45      197.60    19.68   0.214
  CB37                     137.68       0.00       0.00      73.83      43.43      20.04      63.46      318.94    26.23   0.461
  CB38                     137.68       0.00       0.00      80.67      41.27      15.36      56.63      254.92    18.98   0.411
  CB39                     137.68       0.00       0.00      66.64      55.01      15.52      70.53      258.39    18.99   0.512
  CB40                     137.68       0.00       0.00      71.96      47.28      18.01      65.29      213.99    16.79   0.474
  CB41                     137.68       0.00       0.00      91.54      25.42      20.49      45.91       43.91     3.80   0.333
  CB42                     137.68       0.00       0.00      93.86      23.88      19.72      43.60       93.92     8.06   0.317
  CB43                     137.68      44.75       0.00      93.68      39.15      49.34      88.49      159.96    14.61   0.485
  CB44                     137.68      87.01       0.00     101.70      48.02      74.72     122.75      225.64    19.54   0.546
  CB45                     137.68       0.00       0.00      73.09      40.96      23.27      64.23       80.88     7.10   0.467
  CB46                     137.68       0.00       0.00     103.86       0.60      33.23      33.83       24.27     3.12   0.246
  CB47                     137.68       0.00       0.00     105.66       2.33      29.68      32.01       50.02     5.99   0.233
  CB48                     137.68       0.00       0.00     106.37       0.75      30.56      31.32       49.60     6.13   0.227
  CB49                     137.68       0.00       0.00      93.45      18.61      25.47      44.08      117.56    11.53   0.320
  CB50                     137.68      52.73       0.00     121.60      13.75      54.98      68.74      294.12    24.56   0.361
  CB51                     137.68       0.00       0.00      90.33      18.08      29.12      47.20       12.23     1.28   0.343
  CB52                     137.68       0.00       0.00      88.46      14.18      34.94      49.12       11.04     1.29   0.357
  HX1                      137.68       0.00       0.00     104.37       9.25      23.99      33.24       67.49     6.85   0.241
  HX2                      137.68       0.00       0.00      46.92      72.26      17.85      90.11      156.47    12.27   0.654
  HX3                      137.68     365.04       0.00      56.54     300.51     144.99     445.50      190.96    14.88   0.886
  HX4                      137.68       0.00       0.00      94.93      26.19      16.32      42.51       69.01     5.48   0.309
  HX5                      137.68      55.77       0.00      46.42     117.63      28.63     146.26      180.98    13.25   0.756
  HX6                      137.68       0.00       0.00      25.81      99.58      11.39     110.96      114.18     8.22   0.806
  HX7                      137.68       0.00       0.00      57.13      59.86      20.15      80.01       55.48     4.52   0.581
  HX8                      137.68       0.00       0.00      45.89      75.34      15.76      91.10       91.74     6.88   0.662
  HX9                      137.68      99.68       0.00      43.24     153.15      40.17     193.32      177.92    13.23   0.814
  HX10                     137.68       0.00       0.00      67.48      45.59      24.21      69.80       74.13     6.57   0.507
  HX11                     137.68       0.00       0.00      82.87      21.71      32.94      54.65       15.64     1.71   0.397
  HX12                     137.68       0.00       0.00      61.23      51.78      24.22      76.00       39.48     3.47   0.552
  HX13                     137.68      28.42       0.00      75.88      58.43      31.35      89.78      124.71    10.21   0.541
  HX14                     137.68       0.00       0.00      27.76      97.13      11.91     109.04      120.89     8.74   0.792
  HX15                     137.68      76.93       0.00      92.94      58.36      62.98     121.34      196.72    16.71   0.565
  HX16                     137.68       0.00       0.00      84.12      26.74      26.58      53.33       63.13     6.10   0.387
  HX17                     137.68       0.00       0.00      96.86      12.92      27.80      40.72       60.68     6.41   0.296
  HX18                     137.68       0.00       0.00      94.90       9.87      32.85      42.71       22.03     2.58   0.310
  HX19                     137.68      86.24       0.00      43.32     142.96      36.85     179.81      252.05    18.72   0.803
  HX20                     137.68      58.34       0.00      54.54     107.19      33.61     140.79      301.73    22.44   0.718
  HX21                     137.68       0.00       0.00      31.04      94.04      11.72     105.77      125.02     8.81   0.768
  HX22                     137.68     133.98       0.00      84.07     105.93      81.18     187.12      352.00    26.45   0.689
  HX23                     137.68     218.71       0.00      51.94     220.43      83.25     303.68      418.97    30.58   0.852
  HX24                     137.68     200.12       0.00     100.98     103.47     132.98     236.45      415.91    30.65   0.700
  HX25                     137.68     195.50       0.00      17.10     289.52      25.43     314.95      559.41    35.30   0.945
  HX26                     137.68     163.41       0.00      54.84     186.31      59.12     245.43      840.16    51.79   0.815
  HX27                     137.68       0.00       0.00      67.41      51.44      18.36      69.80      276.05    21.75   0.507
  HX28                     137.68     447.28       0.00     154.16      35.89     394.86     430.75      400.54    27.20   0.736
  HX29                     137.68      97.60       0.00     143.59      10.49      81.16      91.65      652.65    49.37   0.390
  HX30                     137.68       0.00       0.00      76.65      43.08      17.56      60.64      252.39    19.71   0.440
  HX31                     137.68       0.00       0.00      29.66      93.95      13.23     107.18       40.17     2.97   0.778
  HX32                     137.68       0.00       0.00      83.08      39.40      14.84      54.24      174.36    12.87   0.394
  HX33                     137.68      37.30       0.00      80.96      59.14      34.46      93.60      437.57    34.23   0.535
  HX34                     137.68       0.00       0.00      53.97      64.46      18.67      83.13       84.55     6.70   0.604
  HX35                     137.68       0.00       0.00      67.47      51.11      18.63      69.74      167.23    13.25   0.507
  HX36                     137.68       0.00       0.00      64.84      52.31      20.06      72.36      106.13     8.66   0.526
  HX37                     137.68       0.00       0.00      77.32      35.69      24.35      60.04       80.06     7.24   0.436
  HX38                     137.68      58.97       0.00      87.57      54.49      54.26     108.75       97.10     8.55   0.553
  HX39                     137.68      24.29       0.00      90.55      45.29      25.78      71.07      513.02    38.30   0.439
  HX40                     137.68       0.00       0.00      78.33      46.12      12.79      58.91      366.01    25.26   0.428
  HX41                     137.68       0.00       0.00     105.40      12.70      19.47      32.17      102.17     9.25   0.234
  HX42                     137.68       0.00       0.00      52.85      70.01      14.16      84.17      175.35    12.46   0.611
  HX43                     137.68       0.00       0.00      65.03      47.86      24.37      72.23       38.30     3.39   0.525
  HX44                     137.68       0.00       0.00      20.27     108.35       8.04     116.39      347.24    22.97   0.845
  HX45                     137.68       0.00       0.00      69.61      47.97      19.67      67.64       52.66     4.28   0.491
  LH1                      137.68       0.00       0.00      75.41      37.42      24.52      61.94      141.09    12.75   0.450
  LH2                      137.68       0.00       0.00      42.25      79.69      15.01      94.70      256.58    19.04   0.688
  LH3                      137.68      33.97       0.00      69.66      71.25      30.22     101.46      227.62    17.83   0.591
  LH4                      137.68       0.00       0.00      65.13      48.42      23.70      72.12       76.21     6.67   0.524
  LH5                      137.68       0.00       0.00      67.74      52.96      16.49      69.45      199.47    15.04   0.504
  LH6                      137.68      56.54       0.00     113.26      32.41      48.35      80.76      284.92    22.64   0.416
  LH7                      137.68       0.00       0.00      90.52      22.68      24.28      46.96      166.77    15.70   0.341
  LH8                      137.68       0.00       0.00     105.31       7.13      25.18      32.31       66.52     7.03   0.235
  LH9                      137.68       0.00       0.00      80.97      34.64      21.76      56.40      190.63    16.48   0.410
  LH10                     137.68       0.00       0.00      82.21      32.42      22.76      55.18      143.59    12.72   0.401
  LH11                     137.68       0.00       0.00      85.84      31.77      19.79      51.55      384.61    32.22   0.374
  LH12                     137.68       0.00       0.00     102.57      14.74      20.24      34.98       76.65     6.96   0.254
  LH13                     137.68       0.00       0.00      89.01      27.05      21.38      48.43      276.32    24.23   0.352
  LH14                     137.68       0.00       0.00      88.40      32.06      16.93      48.99      202.41    15.96   0.356
  LH15                     137.68       0.00       0.00      88.43      27.59      21.42      49.01      139.75    12.24   0.356
  LH16                     137.68       0.00       0.00     110.75      11.77      15.05      26.82      129.06    10.76   0.195
  LH17                     137.68       0.00       0.00      97.09      16.22      24.23      40.46      179.54    17.44   0.294
  LH18                     137.68       0.00       0.00      95.74      23.00      18.73      41.73      230.10    19.43   0.303
  LH19                     137.68       0.00       0.00      88.20      35.68      13.47      49.15      228.34    16.45   0.357
  LH20                     137.68       0.00       0.00     108.76       0.83      28.09      28.92       91.02    10.82   0.210
  LH21                     137.68       0.00       0.00      88.95      24.26      24.26      48.52      167.54    15.67   0.352
  LH22                     137.68       0.00       0.00     115.41       3.64      18.60      22.25      128.77    12.48   0.162
  LH23                     137.68       0.00       0.00      74.01      43.74      19.53      63.27      112.66     9.17   0.460
  LH24                     137.68       0.00       0.00      93.61      23.99      19.87      43.86      369.79    31.82   0.319
  LH25                     137.68       0.00       0.00     100.05      18.16      19.30      37.46      126.16    11.02   0.272
  LH26                     137.68       0.00       0.00     102.98      17.68      16.86      34.54      180.21    15.02   0.251
  LH27                     137.68       0.00       0.00      87.16      36.88      13.29      50.17      261.55    18.70   0.364
  LH28                     137.68       0.00       0.00      93.50      19.43      24.59      44.02      111.88    10.75   0.320
  LH29                     137.68       0.00       0.00     105.44      11.44      20.70      32.14      156.07    14.62   0.233
  LH30                     137.68       0.00       0.00      93.50      24.78      19.18      43.96      246.52    20.86   0.319
  LH31                     137.68       0.00       0.00      91.05      24.43      21.98      46.41      146.48    13.12   0.337
  LH32                     137.68       0.00       0.00     101.80      16.20      19.54      35.74       91.25     8.10   0.260
  LH33                     137.68       0.00       0.00      98.71      26.70      12.02      38.72      275.01    19.74   0.281
  LH34                     137.68       0.00       0.00     101.49      15.82      20.23      36.05      194.19    17.50   0.262
  LH35                     137.68       0.00       0.00      96.02      18.07      23.43      41.50      162.83    15.42   0.301
  LH36                     137.68       0.00       0.00     103.78      18.35      15.39      33.74      142.43    11.47   0.245
  LH37                     137.68       0.00       0.00      96.84      19.94      20.73      40.67      140.42    12.51   0.295
  LH38                     137.68     142.59       0.00     149.32       7.46     123.48     130.94      401.79    30.00   0.467
  LH39                     137.68       0.00       0.00     117.67       4.57      15.40      19.97       87.69     7.88   0.145
  LH40                     137.68       0.00       0.00      98.06      11.94      27.58      39.53       91.44     9.70   0.287
  LH41                     137.68       0.00       0.00      88.27      24.35      24.85      49.20      118.29    11.18   0.357
  LH42                     137.68       0.00       0.00     113.82       2.46      21.38      23.84       84.32     8.75   0.173
  LH43                     137.68       0.00       0.00     110.97       1.75      24.95      26.70       99.06    11.06   0.194
  LH44                     137.68       0.00       0.00     107.19       0.57      29.92      30.49      101.80    12.49   0.221
  LH45                     137.68       0.00       0.00     104.33       9.89      23.38      33.27      138.60    13.83   0.242
  LH46                     137.68       0.00       0.00      99.81       0.00      37.89      37.89       12.47     1.71   0.275
  LH47                     137.68       0.00       0.00     100.57      17.74      19.22      36.95      191.03    16.70   0.268
  LH48                     137.68       0.00       0.00      99.38       0.49      37.82      38.32       27.01     3.68   0.278
  
  
  ******************
  Node Depth Summary
  ******************
  
  ---------------------------------------------------------------------------------
                                 Average  Maximum  Maximum  Time of Max    Reported
                                   Depth    Depth      HGL   Occurrence   Max Depth
  Node                 Type       Meters   Meters   Meters  days hr:min      Meters
  ---------------------------------------------------------------------------------
  WYH1                 JUNCTION     0.89     2.33    20.53     1  03:58        2.33
  WYH2                 JUNCTION     1.08     2.53    20.53     1  03:55        2.53
  WYH3                 JUNCTION     1.28     2.73    20.53     1  03:52        2.73
  WYH4                 JUNCTION     1.48     2.93    20.53     1  03:56        2.93
  WYH5                 JUNCTION     1.68     3.12    20.52     1  03:57        3.12
  WYH6                 JUNCTION     1.79     3.22    20.52     1  03:58        3.22
  WYH7                 JUNCTION     1.89     3.32    20.52     1  04:01        3.32
  WYH8                 JUNCTION     1.98     3.41    20.51     1  04:04        3.41
  WYH9                 JUNCTION     2.19     3.60    20.50     1  04:12        3.60
  WYH10                JUNCTION     2.29     3.70    20.50     1  04:19        3.70
  WYH11                JUNCTION     2.49     3.90    20.50     1  04:32        3.90
  WYH12                JUNCTION     2.59     4.00    20.50     1  04:30        4.00
  WYH13                JUNCTION     2.79     4.20    20.50     1  04:29        4.20
  WYH14                JUNCTION     2.76     4.20    20.50     1  04:29        4.20
  BH1                  JUNCTION     1.35     2.75    20.51     1  04:18        2.74
  BH2                  JUNCTION     1.79     3.20    20.50     1  04:16        3.20
  XCG1                 JUNCTION     1.29     2.68    20.50     1  04:09        2.68
  XCG2                 JUNCTION     1.89     3.30    20.50     1  04:08        3.30
  XZH1                 JUNCTION     0.00     0.00    20.64     0  00:00        0.00
  XZH2                 JUNCTION     0.10     0.62    20.51     1  05:09        0.62
  XZH3                 JUNCTION     0.32     1.33    20.51     1  05:01        1.33
  XZH4                 JUNCTION     0.81     2.14    20.50     1  04:51        2.14
  XZH5                 JUNCTION     2.09     3.49    20.50     1  04:36        3.49
  XZH6                 JUNCTION     2.59     4.00    20.50     1  04:31        4.00
  XZH7                 JUNCTION     2.79     4.20    20.50     1  04:29        4.20
  XZH8                 JUNCTION     2.78     4.19    20.49     1  04:29        4.19
  XSG1                 JUNCTION     0.24     1.96    21.44     0  21:36        1.96
  XSG2                 JUNCTION     0.43     2.38    21.44     0  21:38        2.38
  XSG3                 JUNCTION     0.72     2.80    21.38     0  21:35        2.80
  XSG4                 JUNCTION     0.98     2.80    21.05     0  21:36        2.79
  ZBH1                 JUNCTION     0.70     1.82    20.82     0  22:54        1.81
  ZBH2                 JUNCTION     0.69     1.84    20.84     0  22:25        1.84
  ZBH3                 JUNCTION     0.69     1.86    20.86     0  22:10        1.86
  ZBH4                 JUNCTION     0.59     2.10    21.09     0  21:30        2.10
  ZBH5                 JUNCTION     0.81     2.64    21.09     0  21:33        2.64
  ZBH6                 JUNCTION     1.08     2.71    20.84     0  21:43        2.70
  ZBH7                 JUNCTION     1.43     2.74    20.49     1  04:46        2.74
  ZBH8                 JUNCTION     1.50     2.86    20.50     1  04:42        2.86
  YYH1                 JUNCTION     0.25     1.28    20.84     0  22:29        1.28
  YYH2                 JUNCTION     0.42     1.54    20.84     0  22:27        1.54
  XYG1                 JUNCTION     0.62     2.36    21.09     0  21:37        2.35
  XYG2                 JUNCTION     0.81     3.02    21.01     0  21:40        3.01
  XYG3                 JUNCTION     0.93     3.28    20.98     0  21:34        3.27
  ZYG1                 JUNCTION     0.15     1.00    20.80     0  23:04        1.00
  ZYG2                 JUNCTION     0.19     1.56    20.96     0  21:37        1.55
  ZYG3                 JUNCTION     0.20     1.77    20.97     0  21:37        1.77
  ZYG4                 JUNCTION     0.25     2.08    20.98     0  21:37        2.07
  ZYG5                 JUNCTION     0.31     2.31    20.98     0  21:36        2.31
  ZYG6                 JUNCTION     0.47     2.68    20.98     0  21:35        2.68
  ZYG7                 JUNCTION     0.69     2.98    20.98     0  21:36        2.98
  ZJG1                 JUNCTION     0.01     0.19    20.49     0  22:42        0.19
  ZJG2                 JUNCTION     0.17     1.96    20.96     0  21:35        1.96
  ZJG3                 JUNCTION     0.48     2.68    20.98     0  21:34        2.67
  ZJG4                 JUNCTION     0.46     2.68    20.98     0  21:34        2.68
  ZJG5                 JUNCTION     1.02     3.32    20.99     0  21:33        3.31
  ZJG6                 JUNCTION     0.89     3.18    20.98     0  21:34        3.18
  ZJG7                 JUNCTION     0.57     2.86    20.98     0  21:36        2.86
  ZJG8                 JUNCTION     1.21     3.54    20.94     0  21:34        3.54
  ZJG9                 JUNCTION     1.10     3.42    20.92     0  21:31        3.42
  ZJG10                JUNCTION     1.04     3.36    20.90     0  21:30        3.36
  ZJG11                JUNCTION     1.06     3.30    20.80     0  21:27        3.29
  ZJG12                JUNCTION     0.83     2.98    20.67     0  21:22        2.98
  ZJG13                JUNCTION     0.64     2.75    20.55     0  21:13        2.73
  ZJG14                JUNCTION     0.74     2.81    20.29     0  21:15        2.79
  ZJG15                JUNCTION     0.92     2.93    20.12     0  21:16        2.92
  ZJG16                JUNCTION     1.13     2.98    19.93     0  21:14        2.96
  ZJG17                JUNCTION     1.05     2.69    19.69     0  21:09        2.68
  ZJG18                JUNCTION     1.46     2.83    19.40     0  20:44        2.83
  ZJG19                JUNCTION     0.91     2.04    19.14     0  21:04        2.04
  ZJG20                JUNCTION     1.58     2.75    19.12     1  04:55        2.75
  ZJG21                JUNCTION     1.92     3.11    19.11     1  05:07        3.11
  ZJG22                JUNCTION     2.08     3.30    19.12     1  05:16        3.30
  YDH1                 JUNCTION     2.18     4.37    19.37     1  00:10        4.36
  YDH2                 JUNCTION     2.17     4.36    19.36     1  00:11        4.36
  YDH3                 JUNCTION     2.17     4.35    19.35     1  00:08        4.35
  YDH4                 JUNCTION     2.17     4.38    19.38     1  08:31        4.38
  YDH5                 JUNCTION     2.17     4.40    19.40     1  08:31        4.40
  YDH6                 JUNCTION     1.98     4.25    19.45     1  08:29        4.25
  YDH7                 JUNCTION     1.78     4.10    19.50     1  08:29        4.10
  YDH8                 JUNCTION     1.77     4.14    19.54     1  08:27        4.14
  YDH9                 JUNCTION     1.66     4.09    19.59     1  08:26        4.09
  YDH10                JUNCTION     1.61     4.13    19.63     1  08:25        4.13
  YDH11                JUNCTION     1.94     4.67    19.67     1  08:27        4.67
  YDH12                JUNCTION     2.15     4.98    19.70     1  08:26        4.98
  XTHH1                JUNCTION     0.54     2.04    19.70     1  08:33        2.04
  XTHH2                JUNCTION     0.71     2.48    19.70     1  08:37        2.48
  XTHH3                JUNCTION     0.92     2.96    19.70     1  08:36        2.96
  XTHH4                JUNCTION     1.11     3.39    19.70     1  08:32        3.39
  XTHH5                JUNCTION     1.25     3.62    19.70     1  08:30        3.62
  XTHH6                JUNCTION     1.30     3.72    19.70     1  08:28        3.72
  XTHH7                JUNCTION     1.36     3.85    19.70     1  08:26        3.85
  XTHH8                JUNCTION     1.45     3.98    19.70     1  08:25        3.98
  XTHH9                JUNCTION     1.62     4.24    19.70     1  08:24        4.24
  XTHH10               JUNCTION     1.55     4.17    19.70     1  08:23        4.17
  XTHH11               JUNCTION     1.83     4.60    19.70     1  08:24        4.60
  XTHH12               JUNCTION     1.92     4.73    19.70     1  08:25        4.73
  XTHH13               JUNCTION     2.50     5.34    19.70     1  08:25        5.34
  LSH1                 JUNCTION     1.54     3.96    19.83     1  08:27        3.96
  LSH2                 JUNCTION     1.82     4.25    19.83     1  08:32        4.25
  LSH3                 JUNCTION     2.30     4.73    19.83     1  08:16        4.73
  LSH4                 JUNCTION     1.88     4.73    19.83     1  08:16        4.73
  LSH5                 JUNCTION     2.21     5.00    19.50     1  08:25        5.00
  LSH6                 JUNCTION     2.50     5.24    19.36     1  08:24        5.24
  LSH7                 JUNCTION     2.80     5.49    19.24     1  08:25        5.49
  LSH8                 JUNCTION     3.08     5.73    19.13     1  08:22        5.73
  LSH9                 JUNCTION     3.41     6.02    19.02     1  08:17        6.02
  LSH10                JUNCTION     3.75     6.33    18.93     1  08:13        6.33
  LSH11                JUNCTION     4.10     6.67    18.87     1  08:10        6.67
  LSH12                JUNCTION     4.47     7.02    18.82     1  08:07        7.02
  LSH13                JUNCTION     4.74     7.28    18.78     1  08:04        7.28
  YCJH1                JUNCTION     2.93     4.28    20.45     1  00:09        4.28
  YCJH2                JUNCTION     2.57     4.03    20.20     1  05:55        4.03
  YCJH3                JUNCTION     2.43     3.83    20.00     1  06:00        3.83
  YCJH4                JUNCTION     2.26     3.53    19.55     1  06:05        3.53
  CSG1                 JUNCTION     1.63     2.81    19.11     1  05:00        2.81
  CSG2                 JUNCTION     1.85     3.04    19.04     1  05:10        3.04
  CSG3                 JUNCTION     1.98     3.20    18.92     1  05:32        3.20
  FZG1                 JUNCTION     2.19     3.44    19.43     1  06:08        3.43
  FZG2                 JUNCTION     2.32     3.40    19.00     1  06:10        3.40
  FZG3                 JUNCTION     2.47     3.42    18.72     0  23:37        3.42
  FZG4                 JUNCTION     2.92     4.91    19.71     1  05:23        4.90
  JYG1                 JUNCTION     2.03     3.27    18.98     1  05:27        3.27
  JYG2                 JUNCTION     2.03     3.31    19.00     1  05:28        3.31
  JYG3                 JUNCTION     2.02     3.34    19.01     1  05:29        3.34
  JYG4                 JUNCTION     2.01     3.45    19.10     1  05:30        3.45
  JYG5                 JUNCTION     2.02     3.50    19.15     1  03:57        3.50
  JYG6                 JUNCTION     4.05     5.97    19.47     1  05:38        5.97
  QJCG1                JUNCTION     1.99     3.36    19.03     1  05:31        3.36
  QJCG2                JUNCTION     1.58     2.50    18.17     1  01:12        2.50
  QJCG3                JUNCTION     1.43     2.32    17.68     1  08:43        2.32
  QJCG4                JUNCTION     1.56     2.45    17.65     1  08:42        2.45
  QJCG5                JUNCTION     2.58     3.47    17.62     1  08:41        3.47
  KYG1                 JUNCTION     2.55     3.47    17.60     1  08:36        3.47
  KYG2                 JUNCTION     1.77     2.67    17.48     1  08:48        2.67
  KYG3                 JUNCTION     1.70     2.52    17.04     1  12:23        2.52
  KYG4                 JUNCTION     1.66     2.45    16.89     1  12:53        2.45
  KYG5                 JUNCTION     1.95     2.72    16.65     1  13:22        2.72
  YWG1                 JUNCTION     2.58     3.45    17.61     1  08:40        3.45
  YWG2                 JUNCTION     2.58     3.58    17.60     1  05:20        3.58
  WXG1                 JUNCTION     3.42     5.95    19.35     1  05:43        5.95
  WXG2                 JUNCTION     2.39     3.38    17.39     1  13:09        3.38
  WXG3                 JUNCTION     2.23     3.13    17.10     1  13:13        3.13
  WXG4                 JUNCTION     2.17     3.04    16.99     1  13:15        3.04
  WXG5                 JUNCTION     1.78     2.51    16.43     1  13:27        2.51
  WXG6                 JUNCTION     1.11     1.87    15.77     1  14:43        1.87
  WDG1                 JUNCTION     0.54     1.31    16.81     1  11:25        1.31
  WDG2                 JUNCTION     0.70     1.56    16.81     1  11:21        1.56
  WDG3                 JUNCTION     0.77     1.66    16.81     1  11:18        1.66
  WDG4                 JUNCTION     1.22     2.20    16.81     1  11:05        2.20
  KXG1                 JUNCTION     1.49     2.60    16.73     1  08:09        2.60
  KXG2                 JUNCTION     2.02     3.17    16.73     1  08:24        3.17
  XXG1                 JUNCTION     0.24     0.69    16.73     1  07:02        0.69
  XXG2                 JUNCTION     1.21     2.12    16.11     0  21:20        2.12
  DXG1                 JUNCTION     1.63     2.28    16.19     1  13:36        2.28
  DXG2                 JUNCTION     1.56     2.55    15.93     1  12:05        2.55
  KTG1                 JUNCTION     1.21     2.08    16.02     0  21:25        2.08
  KTG2                 JUNCTION     0.62     1.27    15.29     0  21:45        1.26
  KTG3                 JUNCTION     1.26     1.70    14.98     0  20:02        1.70
  KTG4                 JUNCTION     1.67     2.29    15.15     0  21:03        2.29
  XWG1                 JUNCTION     0.41     0.99    15.16     0  21:03        0.98
  XWG2                 JUNCTION     0.58     1.28    15.13     0  21:07        1.25
  XWG3                 JUNCTION     0.79     1.62    15.12     0  21:10        1.61
  XWG4                 JUNCTION     1.05     1.94    15.12     0  21:22        1.94
  XWG5                 JUNCTION     1.21     2.11    15.12     0  21:23        2.11
  HXG1                 JUNCTION     0.02     0.09    14.37     0  22:30        0.09
  HXG2                 JUNCTION     1.23     2.39    14.43     0  21:38        2.39
  HXG3                 JUNCTION     0.18     0.88    14.20     0  22:04        0.88
  HXG4                 JUNCTION     0.12     0.63    13.85     0  22:16        0.63
  HXG5                 JUNCTION     0.93     1.85    13.68     0  22:00        1.85
  HXG7                 JUNCTION     3.05     4.83    14.23     1  10:36        4.83
  XLG1                 JUNCTION     1.50     2.63    16.67     1  05:22        2.63
  XLG2                 JUNCTION     1.44     2.95    17.00     1  09:36        2.95
  XLG3                 JUNCTION     3.72     6.41    17.41     1  09:14        6.40
  DCG1                 JUNCTION     1.00     2.50    16.72     1  08:36        2.50
  DCG2                 JUNCTION     3.80     6.39    16.99     1  09:29        6.39
  JWG1                 JUNCTION     3.88     6.44    16.84     1  09:33        6.44
  WJG1                 JUNCTION     1.28     2.14    15.13     0  21:25        2.14
  WJG2                 JUNCTION     1.27     2.00    14.93     0  20:50        2.00
  WJG3                 JUNCTION     1.30     2.00    14.83     0  20:45        2.00
  WJG4                 JUNCTION     1.27     2.00    14.82     0  21:05        2.00
  WJG5                 JUNCTION     1.33     2.14    14.81     0  21:02        2.13
  WJG6                 JUNCTION     1.31     2.00    14.58     0  20:53        2.00
  WJG7                 JUNCTION     1.31     2.00    14.51     1  04:07        2.00
  WJG8                 JUNCTION     1.61     2.50    14.59     1  04:16        2.50
  XHLBG1               JUNCTION     1.19     2.18    14.97     0  21:28        2.18
  XHLBG2               JUNCTION     0.80     1.57    14.51     1  09:41        1.57
  XHLBG3               JUNCTION     0.98     1.81    14.51     1  09:42        1.81
  XHLBG4               JUNCTION     1.07     1.92    14.51     1  09:45        1.92
  XHLBG6               JUNCTION     1.26     2.12    14.53     1  09:47        2.12
  XHLBG7               JUNCTION     1.50     2.38    14.57     1  09:48        2.38
  XHLBG8               JUNCTION     3.59     5.83    15.73     1  10:04        5.83
  SYG1                 JUNCTION     4.19     6.74    18.94     1  07:37        6.74
  SYG2                 JUNCTION     1.31     2.19    15.43     1  12:11        2.19
  SYG3                 JUNCTION     1.27     2.11    15.30     0  21:31        2.11
  SYG4                 JUNCTION     1.19     2.07    15.12     0  21:25        2.07
  SYG5                 JUNCTION     1.20     2.26    14.92     0  21:28        2.26
  SYG6                 JUNCTION     2.01     3.23    13.53     1  18:38        3.23
  RXG1                 JUNCTION     4.65     7.19    18.79     1  08:03        7.19
  RXG2                 JUNCTION     1.62     3.10    17.54     1  02:15        3.10
  RXG3                 JUNCTION     1.17     2.62    16.71     1  08:41        2.62
  YNG1                 JUNCTION     1.38     3.21    16.75     1  09:41        3.21
  YNG2                 JUNCTION     1.99     4.24    16.69     1  09:43        4.24
  YNG3                 JUNCTION     0.73     1.47    14.53     1  09:48        1.47
  YNG4                 JUNCTION     0.93     1.73    14.45     1  09:50        1.73
  YNG5                 JUNCTION     1.00     1.81    13.97     1  10:20        1.81
  YNG6                 JUNCTION     0.94     1.75    13.85     0  22:00        1.75
  YNG7                 JUNCTION     0.91     1.72    13.79     0  22:02        1.72
  YNG8                 JUNCTION     0.95     1.86    13.64     0  22:01        1.86
  YNG9                 JUNCTION     0.88     1.68    13.38     0  22:14        1.67
  YNG10                JUNCTION     1.94     2.96    12.56     1  19:23        2.96
  BYH1                 JUNCTION     2.16     4.65    20.65     1  01:01        4.65
  BYH2                 JUNCTION     2.28     4.50    20.20     1  04:32        4.50
  BYH3                 JUNCTION     2.48     4.59    19.99     1  05:14        4.59
  BYH4                 JUNCTION     2.69     4.73    19.83     1  05:18        4.72
  BYH5                 JUNCTION     2.77     4.79    19.79     1  05:19        4.79
  BYH6                 JUNCTION     3.11     5.10    19.70     1  05:23        5.10
  BYH7                 JUNCTION     3.36     5.32    19.62     1  05:27        5.32
  BYH8                 JUNCTION     3.60     5.55    19.55     1  05:32        5.55
  BYH9                 JUNCTION     3.86     5.78    19.48     1  05:37        5.78
  BYH10                JUNCTION     3.62     6.17    19.27     1  06:58        6.17
  BYH11                JUNCTION     3.64     6.18    19.18     1  07:04        6.18
  BYH12                JUNCTION     3.67     6.22    19.12     1  07:10        6.22
  BYH13                JUNCTION     3.96     6.52    19.02     1  07:25        6.52
  BYH14                JUNCTION     4.11     6.66    18.96     1  07:34        6.66
  BYH15                JUNCTION     4.27     6.82    18.92     1  07:41        6.82
  BYH16                JUNCTION     4.35     6.90    18.90     1  07:44        6.89
  BYH17                JUNCTION     4.41     6.95    18.85     1  07:52        6.95
  BYH18                JUNCTION     4.56     7.10    18.80     1  08:01        7.10
  BYH19                JUNCTION     4.74     7.29    18.79     1  08:04        7.29
  BYH20                JUNCTION     3.92     6.76    17.96     1  08:48        6.76
  BYH21                JUNCTION     3.76     6.38    17.08     1  09:26        6.38
  BYH22                JUNCTION     3.87     6.39    16.69     1  09:38        6.39
  BYH23                JUNCTION     3.62     5.96    16.06     1  09:56        5.96
  BYH24                JUNCTION     3.43     5.54    15.24     1  10:14        5.54
  BYH25                JUNCTION     3.29     5.33    15.03     1  10:19        5.33
  BYH26                JUNCTION     2.80     4.30    13.40     1  11:16        4.30
  BYH27                JUNCTION     0.83     1.27    10.27     1  12:44        1.27
  CBH1                 JUNCTION     0.02     0.09    19.99     1  01:29        0.09
  CBH2                 JUNCTION     0.04     0.12    19.32     1  03:32        0.12
  CBH3                 JUNCTION     0.04     0.08    18.68     1  11:12        0.08
  CBH4                 JUNCTION     0.04     0.09    18.09     0  22:38        0.09
  CBH5                 JUNCTION     0.10     0.31    17.61     1  08:15        0.31
  CBH6                 JUNCTION     0.38     1.01    17.61     1  08:24        1.01
  CBH7                 JUNCTION     0.78     1.61    17.61     1  08:38        1.61
  CBH8                 JUNCTION     1.06     1.91    17.61     1  08:39        1.91
  CBH9                 JUNCTION     1.16     1.97    17.27     1  08:52        1.97
  CBH10                JUNCTION     1.07     1.80    16.80     1  09:35        1.80
  CBH11                JUNCTION     0.97     1.66    16.41     1  11:22        1.66
  CBH12                JUNCTION     0.97     1.67    16.17     1  12:43        1.67
  CBH13                JUNCTION     1.12     2.04    15.54     1  15:38        2.04
  CBH14                JUNCTION     1.47     2.54    15.44     1  15:55        2.54
  CBH15                JUNCTION     1.86     2.97    15.37     1  16:02        2.97
  CBH16                JUNCTION     1.95     3.08    14.98     1  16:27        3.08
  CBH17                JUNCTION     1.76     2.88    14.18     1  17:34        2.88
  CBH18                JUNCTION     1.76     2.96    13.76     1  18:19        2.96
  CBH19                JUNCTION     2.09     3.30    13.50     1  18:39        3.30
  CBH20                JUNCTION     2.28     3.49    13.39     1  18:43        3.49
  PGG1                 JUNCTION     0.00     0.04    20.64     1  00:32        0.04
  PGG2                 JUNCTION     0.02     0.28    20.78     0  23:30        0.28
  PGG3                 JUNCTION     0.29     1.31    20.81     0  22:57        1.31
  PGG4                 JUNCTION     0.35     1.42    20.82     0  22:56        1.41
  THH1                 JUNCTION     1.88     3.31    20.51     1  04:32        3.31
  THH2                 JUNCTION     2.08     3.51    20.51     1  04:33        3.51
  THH3                 JUNCTION     2.57     4.01    20.51     1  04:33        4.01
  THH4                 JUNCTION     2.78     4.23    20.51     1  04:34        4.23
  THH5                 JUNCTION     2.97     4.42    20.51     1  04:33        4.42
  THH6                 JUNCTION     3.03     4.48    20.51     1  04:32        4.48
  THH7                 JUNCTION     3.44     4.90    20.51     1  04:31        4.90
  THH8                 JUNCTION     3.65     5.11    20.51     1  04:29        5.11
  THH9                 JUNCTION     3.82     5.27    20.50     1  04:28        5.27
  THH10                JUNCTION     4.00     5.43    20.49     1  04:28        5.43
  NDG1                 JUNCTION     0.07     2.30    22.74     0  21:01        2.29
  NDG2                 JUNCTION     0.08     2.38    22.18     0  21:04        2.35
  NDG3                 JUNCTION     0.09     2.25    21.87     0  21:06        2.21
  NDG4                 JUNCTION     0.09     1.97    21.54     0  21:11        1.90
  NDG5                 JUNCTION     0.38     1.74    20.99     0  21:18        1.72
  NDG6                 JUNCTION     0.32     1.50    20.81     0  21:25        1.50
  NDG7                 JUNCTION     0.32     1.46    20.77     0  21:28        1.46
  NDG8                 JUNCTION     0.40     0.85    20.05     0  21:30        0.85
  NDG9                 JUNCTION     0.02     0.24    19.82     0  21:28        0.24
  YLG1                 JUNCTION     0.00     0.00    17.78     0  00:00        0.00
  YLG2                 JUNCTION     0.00     0.00    14.91     0  00:00        0.00
  YLG3                 JUNCTION     1.34     2.50    14.87     0  21:26        2.50
  HXG6                 JUNCTION     1.20     2.00    13.28     0  20:51        2.00
  XHLBG5               JUNCTION     1.17     2.02    14.51     1  09:46        2.02
  BYH28                JUNCTION     4.14     6.05    19.45     1  05:39        6.05
  BYH29                JUNCTION     4.14     7.17    18.67     1  08:12        7.17
  BYH30                JUNCTION     3.39     5.48    15.18     1  10:15        5.48
  BYH31                JUNCTION     4.18     7.18    18.58     1  08:18        7.18
  BYH32                JUNCTION     4.05     6.96    18.26     1  08:31        6.96
  BYH33                JUNCTION     3.80     6.55    17.65     1  09:03        6.55
  BYH34                JUNCTION     3.71     6.13    16.33     1  09:48        6.13
  BYH35                JUNCTION     3.49     5.66    15.46     1  10:10        5.66
  WEJ9                 JUNCTION     0.00     0.00     9.90     0  00:00        0.00
  PFK1                 OUTFALL      0.61     1.03    10.03     1  12:44        1.03
  PFK2                 OUTFALL      0.00     0.00     9.90     0  00:00        0.00
  
  
  *******************
  Node Inflow Summary
  *******************
  
  -------------------------------------------------------------------------------------------------
                                  Maximum  Maximum                  Lateral       Total        Flow
                                  Lateral    Total  Time of Max      Inflow      Inflow     Balance
                                   Inflow   Inflow   Occurrence      Volume      Volume       Error
  Node                 Type           CMS      CMS  days hr:min    10^6 ltr    10^6 ltr     Percent
  -------------------------------------------------------------------------------------------------
  WYH1                 JUNCTION     0.000   43.076     1  01:32           0         144       7.075
  WYH2                 JUNCTION     0.000   89.660     1  01:33           0         687       8.834
  WYH3                 JUNCTION     0.000  124.812     1  01:29           0     1.6e+03       7.385
  WYH4                 JUNCTION     0.000  145.276     1  01:21           0    2.57e+03       5.158
  WYH5                 JUNCTION     0.000  158.056     1  01:06           0    3.35e+03       3.559
  WYH6                 JUNCTION    25.442  173.511     1  00:55         348    4.22e+03       3.527
  WYH7                 JUNCTION     0.000  189.878     1  00:43           0    4.76e+03       3.832
  WYH8                 JUNCTION     0.000  212.774     1  00:28           0    5.63e+03       4.224
  WYH9                 JUNCTION    21.034  241.628     1  00:16         243    6.91e+03       4.093
  WYH10                JUNCTION     6.850  269.242     1  00:09        67.5     7.9e+03       3.889
  WYH11                JUNCTION    23.724  288.805     1  00:05         290    8.87e+03       3.102
  WYH12                JUNCTION     0.000  301.773     1  00:02           0    1.17e+04       1.598
  WYH13                JUNCTION     4.525  197.546     0  23:43        55.4    9.77e+03       0.727
  WYH14                JUNCTION     0.000  201.241     0  23:42           0    9.91e+03       0.488
  BH1                  JUNCTION     0.000    2.918     0  21:39           0        33.1      14.590
  BH2                  JUNCTION     0.000    6.933     0  21:42           0         125      14.273
  XCG1                 JUNCTION     0.000    0.864     0  23:18           0        11.2       9.871
  XCG2                 JUNCTION     0.000    2.701     0  23:15           0        45.6      10.888
  XZH1                 JUNCTION     0.000    0.000     0  00:00           0           0       0.000 ltr
  XZH2                 JUNCTION     0.000    4.796     1  01:16           0        45.6       0.994
  XZH3                 JUNCTION    19.189   19.189     0  21:00         234         350       0.076
  XZH4                 JUNCTION    17.359   27.879     0  21:00         181         620       0.564
  XZH5                 JUNCTION    13.043   65.594     0  21:45         137     1.8e+03       9.069
  XZH6                 JUNCTION    20.787  154.143     1  00:02         281    5.34e+03       3.863
  XZH7                 JUNCTION     0.000  155.067     1  00:01           0    3.85e+03       0.031
  XZH8                 JUNCTION     0.000  157.155     0  23:46           0    3.92e+03       1.338
  XSG1                 JUNCTION     0.000    1.009     0  20:50           0        6.81       0.737
  XSG2                 JUNCTION     4.476    4.476     0  21:00        39.8        50.6       0.282
  XSG3                 JUNCTION     9.938   10.414     0  21:00         124         169      -0.461
  XSG4                 JUNCTION    11.810   31.237     0  21:03         144         677       0.308
  ZBH1                 JUNCTION     8.480   16.467     0  21:00        93.8         297       1.229
  ZBH2                 JUNCTION     0.000   12.545     0  21:12           0         295       0.255
  ZBH3                 JUNCTION     6.694   14.590     0  21:00        57.4         326       0.609
  ZBH4                 JUNCTION    16.838   16.838     0  21:00         178         386       0.301
  ZBH5                 JUNCTION    18.733   18.733     0  21:00         227         415       0.191
  ZBH6                 JUNCTION     0.000   27.290     0  21:10           0         646       0.567
  ZBH7                 JUNCTION    12.311   34.968     0  21:24         125         752       1.559
  ZBH8                 JUNCTION    22.753   69.013     0  21:22         277    1.68e+03       4.677
  YYH1                 JUNCTION     0.000    0.997     0  21:05           0        6.27       0.135
  YYH2                 JUNCTION     0.000    2.554     0  21:03           0        24.2       0.114
  XYG1                 JUNCTION     9.190   13.478     0  21:00        82.8         503       0.354
  XYG2                 JUNCTION     0.000    5.629     1  04:54           0         411       0.187
  XYG3                 JUNCTION    10.328   18.982     0  21:00         111         909       0.186
  ZYG1                 JUNCTION     3.604    9.425     0  21:26        28.1         104       0.307
  ZYG2                 JUNCTION     4.009    4.646     0  21:12          34         110      -0.191
  ZYG3                 JUNCTION     0.000    2.594     0  23:59           0          95       0.030
  ZYG4                 JUNCTION     0.000    2.880     0  23:37           0         102       0.013
  ZYG5                 JUNCTION     0.000    4.134     0  21:04           0         118       0.042
  ZYG6                 JUNCTION     0.000    5.370     0  21:01           0         141       0.000
  ZYG7                 JUNCTION    16.425   16.425     0  21:00         214         432       0.064
  ZJG1                 JUNCTION     3.117    8.032     0  21:23        24.3        74.9       0.372
  ZJG2                 JUNCTION     0.000    6.489     0  21:21           0        56.4      -0.025
  ZJG3                 JUNCTION     4.844    8.166     0  21:00        49.2        88.2       0.056
  ZJG4                 JUNCTION     0.000    5.891     0  21:01           0        73.1       0.045
  ZJG5                 JUNCTION     8.947    8.947     0  21:00        93.3         140       1.591
  ZJG6                 JUNCTION     0.000    3.512     0  20:28           0         106       1.225
  ZJG7                 JUNCTION     0.000    9.867     0  20:34           0         387       0.002
  ZJG8                 JUNCTION     0.000   17.965     0  21:50           0         904       0.389
  ZJG9                 JUNCTION     0.000   18.793     0  22:20           0         903       0.276
  ZJG10                JUNCTION    19.684   30.121     0  21:40         198     1.1e+03       0.183
  ZJG11                JUNCTION     0.000   30.406     0  21:44           0     1.1e+03       0.209
  ZJG12                JUNCTION     0.000   30.753     0  21:48           0     1.1e+03       0.115
  ZJG13                JUNCTION    26.230   47.367     0  21:00         319    1.42e+03       0.010
  ZJG14                JUNCTION     0.000   45.578     0  21:02           0    1.41e+03       0.033
  ZJG15                JUNCTION     0.000   44.630     0  21:11           0    1.41e+03       0.037
  ZJG16                JUNCTION     0.000   44.685     0  21:19           0    1.41e+03       0.091
  ZJG17                JUNCTION    18.976   58.892     0  21:07         255    1.66e+03       0.050
  ZJG18                JUNCTION     0.000   58.877     0  21:10           0    1.66e+03       0.297
  ZJG19                JUNCTION     0.000   40.583     0  20:45           0    1.57e+03       0.024
  ZJG20                JUNCTION    18.988   56.670     0  21:00         258    1.83e+03       0.066
  ZJG21                JUNCTION     0.000   35.910     0  21:03           0    1.35e+03       0.404
  ZJG22                JUNCTION    16.786  185.899     1  00:21         214    2.19e+04       0.450
  YDH1                 JUNCTION    51.793   51.793     0  21:00         840         842       0.301
  YDH2                 JUNCTION     0.000   50.298     0  21:01           0         850       0.530
  YDH3                 JUNCTION     0.000   47.783     0  21:02           0    1.89e+03       0.211
  YDH4                 JUNCTION     0.000   45.728     0  21:04           0    1.87e+03       0.232
  YDH5                 JUNCTION     0.000   44.036     0  21:10           0    1.88e+03       0.290
  YDH6                 JUNCTION     0.000   43.477     0  21:18           0    1.91e+03       0.156
  YDH7                 JUNCTION    19.705   57.074     0  21:08         252    2.17e+03       0.052
  YDH8                 JUNCTION     2.969   57.941     0  21:10        40.1    2.21e+03       0.062
  YDH9                 JUNCTION     0.000   57.109     0  21:13           0    2.23e+03       0.035
  YDH10                JUNCTION     0.000   56.526     0  21:19           0    2.25e+03       0.007
  YDH11                JUNCTION     0.000   56.058     0  21:23           0    2.27e+03       0.015
  YDH12                JUNCTION    13.254  117.983     0  21:23         167    4.89e+03       0.022
  XTHH1                JUNCTION     0.000   21.529     0  21:28           0         345      -0.178
  XTHH2                JUNCTION     0.000   20.656     0  21:37           0         443       0.163
  XTHH3                JUNCTION    27.199   41.635     0  21:41         400         991      -0.059
  XTHH4                JUNCTION     0.000   37.689     0  21:55           0    1.14e+03       0.079
  XTHH5                JUNCTION     0.000   46.240     0  23:51           0    1.29e+03       0.035
  XTHH6                JUNCTION     0.000   53.631     0  23:49           0    1.44e+03       0.028
  XTHH7                JUNCTION    49.367   68.032     0  21:43         652    2.09e+03      -0.005
  XTHH8                JUNCTION     0.000   66.477     0  21:41           0    2.05e+03      -0.007
  XTHH9                JUNCTION     0.000   65.055     0  21:40           0    2.15e+03       0.083
  XTHH10               JUNCTION     6.701   63.342     0  21:34        84.5    2.35e+03       0.007
  XTHH11               JUNCTION     0.000   67.287     0  23:42           0    2.45e+03       0.009
  XTHH12               JUNCTION     0.000   70.293     0  23:41           0    2.54e+03       0.004
  XTHH13               JUNCTION     3.394  765.919     0  23:55        38.3     4.6e+04      -0.085
  LSH1                 JUNCTION     0.000   35.681     0  21:42           0         313      10.218
  LSH2                 JUNCTION     8.657   70.504     0  21:40         106         988       6.115
  LSH3                 JUNCTION     0.000  120.980     0  23:52           0    1.38e+03       3.712
  LSH4                 JUNCTION   790.000  871.890     0  23:52    4.27e+04    4.35e+04      -0.064
  LSH5                 JUNCTION    15.791  674.453     1  00:15         177    4.46e+04       0.027
  LSH6                 JUNCTION    38.301  665.731     1  00:17         513    4.51e+04       0.116
  LSH7                 JUNCTION     0.000  654.387     1  00:24           0    4.51e+04       0.211
  LSH8                 JUNCTION    25.261  642.598     1  00:28         366    4.54e+04       0.281
  LSH9                 JUNCTION     0.000  626.706     1  00:38           0    4.52e+04       0.366
  LSH10                JUNCTION     0.000  605.042     1  00:41           0    4.51e+04       0.509
  LSH11                JUNCTION     0.000  575.423     1  00:44           0    4.48e+04       0.658
  LSH12                JUNCTION     9.254  539.516     1  00:47         102    4.47e+04       0.765
  LSH13                JUNCTION     9.696  911.761     1  05:58        91.4    9.15e+04       0.286
  YCJH1                JUNCTION   449.978  468.851     1  04:35     4.6e+04    4.83e+04       0.148
  YCJH2                JUNCTION     0.000  265.551     1  00:09           0    2.84e+04       0.098
  YCJH3                JUNCTION    11.415  261.381     1  00:09         138    2.85e+04       0.255
  YCJH4                JUNCTION    38.495  256.886     1  00:14         507    2.89e+04       0.213
  CSG1                 JUNCTION     0.000   55.978     0  21:00           0    2.57e+03       0.129
  CSG2                 JUNCTION     3.805   22.169     0  21:00        43.9    1.98e+03       0.465
  CSG3                 JUNCTION     8.063  203.278     1  04:07        93.9    2.19e+04       0.672
  FZG1                 JUNCTION     0.000  250.871     1  00:20           0    2.89e+04       0.242
  FZG2                 JUNCTION     0.000   76.243     1  06:08           0    7.76e+03       0.151
  FZG3                 JUNCTION     0.000  143.677     1  05:24           0    1.09e+04       0.241
  FZG4                 JUNCTION    22.642  831.439     1  01:10         285    6.06e+04       0.361
  JYG1                 JUNCTION     0.000  188.622     1  04:06           0    2.25e+04       0.201
  JYG2                 JUNCTION     7.030   43.502     0  23:43        66.5    4.22e+03       0.385
  JYG3                 JUNCTION     0.000   41.137     0  23:38           0    4.17e+03       0.371
  JYG4                 JUNCTION     0.000   63.950     1  08:36           0    4.89e+03       0.303
  JYG5                 JUNCTION    16.479   75.572     1  05:41         191    5.21e+03       1.648
  JYG6                 JUNCTION     6.956  655.035     1  01:37        76.6     5.7e+04       0.638
  QJCG1                JUNCTION     0.000   64.048     1  08:39           0    5.95e+03       0.304
  QJCG2                JUNCTION     0.000   30.488     1  05:32           0    2.85e+03       0.130
  QJCG3                JUNCTION     0.000   23.514     1  01:14           0    2.51e+03       0.165
  QJCG4                JUNCTION     0.000   22.852     1  01:22           0    2.52e+03       0.237
  QJCG5                JUNCTION    12.720   22.189     1  01:25         144    4.06e+03       0.823
  KYG1                 JUNCTION     0.000   18.402     0  23:22           0    3.01e+03       1.391
  KYG2                 JUNCTION     0.000    8.572     1  05:24           0         895       0.703
  KYG3                 JUNCTION     0.000    8.271     1  05:53           0         905       0.601
  KYG4                 JUNCTION     0.000    8.205     1  08:52           0         925       0.323
  KYG5                 JUNCTION    24.226   39.652     1  07:23         276    5.42e+03       0.328
  YWG1                 JUNCTION    24.559  223.912     1  05:16         294    2.49e+04       0.442
  YWG2                 JUNCTION    32.216   53.953     1  08:51         384    6.27e+03       1.162
  WXG1                 JUNCTION     0.000  591.032     1  01:35           0    5.39e+04       0.151
  WXG2                 JUNCTION     0.000   39.588     1  05:20           0    4.91e+03       0.452
  WXG3                 JUNCTION     0.000   39.193     1  05:23           0    4.89e+03       0.530
  WXG4                 JUNCTION     0.000   38.624     1  05:28           0    4.92e+03       0.300
  WXG5                 JUNCTION     0.000   39.605     1  07:36           0    5.36e+03       0.137
  WXG6                 JUNCTION    10.825  238.380     1  09:26          91     2.7e+04       0.742
  WDG1                 JUNCTION     0.000    0.729     0  21:26           0        7.88       1.450
  WDG2                 JUNCTION     0.000    1.517     0  21:15           0        28.4      -0.153
  WDG3                 JUNCTION     0.000    2.650     0  21:04           0        59.7       0.668
  WDG4                 JUNCTION    15.963   15.963     0  21:00         202         900       0.219
  KXG1                 JUNCTION    12.241   19.572     0  21:00         140    1.01e+03       0.162
  KXG2                 JUNCTION    10.757   21.256     0  21:00         129    1.85e+03       1.041
  XXG1                 JUNCTION     0.000    0.582     1  04:54           0        6.12       4.413
  XXG2                 JUNCTION    17.439   21.210     0  21:00         179     1.2e+03       0.212
  DXG1                 JUNCTION    16.451   39.592     1  07:42         228    5.58e+03       0.155
  DXG2                 JUNCTION    19.434   33.573     0  21:00         230     3.5e+03       0.592
  KTG1                 JUNCTION     0.000   16.521     0  21:02           0     1.2e+03       0.252
  KTG2                 JUNCTION     0.000    5.917     0  21:26           0         461       0.046
  KTG3                 JUNCTION     0.000   11.828     0  21:36           0         528       0.783
  KTG4                 JUNCTION    11.022   11.022     0  21:00         126         310       0.861
  XWG1                 JUNCTION     0.000    0.222     0  20:05           0        2.12       0.057
  XWG2                 JUNCTION     0.000    4.013     0  20:07           0         239       0.034
  XWG3                 JUNCTION     0.000    3.537     0  20:12           0         238       0.047
  XWG4                 JUNCTION     0.000    3.129     1  00:28           0         239       0.121
  XWG5                 JUNCTION    15.020   20.681     0  20:51         180    2.48e+03       0.084
  HXG1                 JUNCTION     0.000    0.358     0  21:34           0         1.4      16.951
  HXG2                 JUNCTION    16.697   41.923     0  21:00         191    2.77e+03       0.940
  HXG3                 JUNCTION     0.000    3.147     0  21:28           0        63.3       0.274
  HXG4                 JUNCTION     0.000    2.748     0  22:03           0        64.7       0.290
  HXG5                 JUNCTION    19.744   24.142     0  21:00         275    1.64e+03      -0.000
  HXG7                 JUNCTION    15.423  821.372     1  10:04         163    8.66e+04       0.250
  XLG1                 JUNCTION     0.000   27.989     1  09:22           0    2.45e+03       0.086
  XLG2                 JUNCTION    15.670   22.596     1  08:12         167    2.02e+03       1.403
  XLG3                 JUNCTION    23.661  901.542     1  07:43         247    8.95e+04       0.164
  DCG1                 JUNCTION     0.000    5.521     0  21:05           0         323      -0.174
  DCG2                 JUNCTION    31.824  889.297     1  08:22         370    8.95e+04       0.097
  JWG1                 JUNCTION    10.754  880.550     1  08:36         112    8.91e+04       0.067
  WJG1                 JUNCTION     0.000   31.491     1  12:12           0    3.48e+03       0.075
  WJG2                 JUNCTION     0.000   18.984     0  21:26           0    1.41e+03       0.161
  WJG3                 JUNCTION     0.000   11.318     1  10:33           0    1.34e+03       0.112
  WJG4                 JUNCTION     0.000    9.726     0  23:15           0    1.05e+03       0.199
  WJG5                 JUNCTION    18.697   23.729     0  20:50         261    2.01e+03       0.161
  WJG6                 JUNCTION     0.000   16.004     0  21:04           0    1.62e+03       0.171
  WJG7                 JUNCTION     0.000   15.565     1  18:11           0    1.82e+03       0.233
  WJG8                 JUNCTION     8.095   45.671     1  10:05        91.2    3.45e+03       0.067
  XHLBG1               JUNCTION     0.000   19.870     1  12:12           0    2.47e+03       0.108
  XHLBG2               JUNCTION     0.000    3.730     0  21:28           0         149       0.016
  XHLBG3               JUNCTION     0.000    3.672     0  21:45           0         174       0.015
  XHLBG4               JUNCTION     0.000    3.891     1  04:20           0         201       0.003
  XHLBG6               JUNCTION     0.000   13.723     1  04:19           0         741       0.092
  XHLBG7               JUNCTION     0.000   15.345     1  04:13           0         737       0.287
  XHLBG8               JUNCTION    25.677  868.437     1  09:21         255    8.93e+04       0.268
  SYG1                 JUNCTION     0.000  480.067     1  03:09           0     5.1e+04       0.177
  SYG2                 JUNCTION     0.000   31.493     1  12:03           0    3.48e+03       0.108
  SYG3                 JUNCTION     0.000   31.492     1  12:10           0    3.48e+03       0.044
  SYG4                 JUNCTION     0.000   18.911     1  12:10           0    2.07e+03       0.022
  SYG5                 JUNCTION     0.000   18.394     1  12:02           0    2.34e+03       0.092
  SYG6                 JUNCTION    13.832  235.078     1  17:15         139    2.86e+04       0.929
  RXG1                 JUNCTION     0.000  444.809     1  05:14           0    5.11e+04       0.239
  RXG2                 JUNCTION     0.000   32.714     1  08:04           0    2.08e+03       0.056
  RXG3                 JUNCTION     9.166   12.500     1  08:36         113         952       0.109
  YNG1                 JUNCTION     0.000    7.816     1  09:28           0         560       1.906
  YNG2                 JUNCTION     0.000   13.384     1  08:41           0         729       0.207
  YNG3                 JUNCTION     0.000    4.793     0  21:02           0         377       0.077
  YNG4                 JUNCTION     0.000   11.944     1  09:20           0    1.27e+03      -0.008
  YNG5                 JUNCTION     0.000   11.943     1  09:30           0    1.27e+03       0.010
  YNG6                 JUNCTION     0.000   11.947     1  11:40           0    1.27e+03       0.000
  YNG7                 JUNCTION     0.000   11.951     1  11:37           0    1.28e+03       0.028
  YNG8                 JUNCTION     0.000   13.253     0  21:19           0    1.23e+03       0.009
  YNG9                 JUNCTION     0.000   13.031     0  21:26           0    1.23e+03       1.013
  YNG10                JUNCTION    11.473  243.108     1  18:26         142    2.94e+04       0.471
  BYH1                 JUNCTION  1209.913 1209.913     1  01:00    4.24e+04    6.18e+04       0.087
  BYH2                 JUNCTION    12.753  903.949     1  00:36         141    5.69e+04       0.376
[...]
  ywq1                    1.00   0.04  0.00  0.00  0.96  0.00  0.00  0.00  0.00  0.00
  ywq2                    1.00   0.06  0.00  0.00  0.94  0.00  0.00  0.00  0.00  0.00
  ywq3                    1.00   0.08  0.00  0.00  0.92  0.00  0.00  0.00  0.01  0.00
  kyq1                    1.00   0.16  0.00  0.00  0.84  0.00  0.00  0.00  0.00  0.00
  kyq2                    1.00   0.15  0.01  0.00  0.84  0.00  0.00  0.00  0.04  0.00
  kyq3                    1.00   0.13  0.02  0.00  0.85  0.00  0.00  0.00  0.00  0.00
  kyq4                    1.00   0.10  0.03  0.00  0.87  0.00  0.00  0.00  0.00  0.00
  wxq1                    1.00   0.04  0.04  0.00  0.76  0.00  0.16  0.00  0.00  0.00
  wxq2                    1.00   0.04  0.00  0.00  0.96  0.00  0.00  0.00  0.00  0.00
  wxq3                    1.00   0.07  0.00  0.00  0.93  0.00  0.00  0.00  0.00  0.00
  wxq4                    1.00   0.04  0.05  0.00  0.91  0.00  0.00  0.00  0.00  0.00
  wxq5                    1.00   0.04  0.00  0.00  0.96  0.00  0.00  0.00  0.01  0.00
  wxq6                    1.00   0.04  0.00  0.00  0.96  0.00  0.00  0.00  0.00  0.00
  wxq7                    1.00   0.04  0.03  0.00  0.93  0.00  0.00  0.00  0.00  0.00
  wxq8                    1.00   0.04  0.00  0.00  0.96  0.00  0.00  0.00  0.00  0.00
  wdq1                    1.00   0.17  0.02  0.00  0.80  0.00  0.00  0.00  0.40  0.00
  wdq2                    1.00   0.13  0.04  0.00  0.83  0.00  0.00  0.00  0.34  0.00
  wdq3                    1.00   0.09  0.04  0.00  0.78  0.00  0.00  0.09  0.27  0.00
  kxq1                    1.00   0.05  0.09  0.00  0.81  0.00  0.06  0.00  0.41  0.00
  kxq2                    1.00   0.05  0.00  0.00  0.95  0.00  0.00  0.00  0.37  0.00
  kxq3                    1.00   0.04  0.02  0.00  0.94  0.00  0.00  0.00  0.03  0.00
  xxq1                    1.00   0.18  0.04  0.00  0.40  0.00  0.00  0.38  0.16  0.00
  xxq2                    1.00   0.10  0.46  0.00  0.44  0.00  0.00  0.00  0.80  0.00
  dxq1                    1.00   0.06  0.07  0.00  0.86  0.00  0.00  0.00  0.25  0.00
  dxq2                    1.00   0.04  0.02  0.00  0.94  0.00  0.00  0.00  0.00  0.00
  dxq3                    1.00   0.04  0.00  0.00  0.96  0.00  0.00  0.00  0.42  0.00
  ktq1                    1.00   0.13  0.44  0.00  0.43  0.00  0.00  0.00  0.80  0.00
  ktq2                    1.00   0.09  0.04  0.00  0.87  0.00  0.00  0.00  0.00  0.00
  ktq3                    1.00   0.04  0.05  0.00  0.91  0.00  0.00  0.00  0.00  0.00
  xwq1                    1.00   0.13  0.01  0.00  0.86  0.00  0.00  0.00  0.38  0.00
  xwq2                    1.00   0.13  0.00  0.00  0.87  0.00  0.00  0.00  0.40  0.00
  xwq3                    1.00   0.13  0.00  0.00  0.87  0.00  0.00  0.00  0.40  0.00
  xwq4                    1.00   0.10  0.04  0.00  0.86  0.00  0.00  0.00  0.34  0.00
  xwq5                    1.00   0.04  0.06  0.00  0.90  0.00  0.00  0.00  0.01  0.00
  ylq1                    1.00   1.00  0.00  0.00  0.00  0.00  0.00  0.00  0.00  0.00
  ylq2                    1.00   0.04  0.96  0.00  0.00  0.00  0.00  0.00  0.00  0.00
  hxq1                    1.00   0.19  0.03  0.00  0.34  0.00  0.00  0.44  0.32  0.00
  hxq2                    1.00   0.19  0.44  0.00  0.37  0.00  0.00  0.00  0.49  0.00
  hxq3                    1.00   0.19  0.00  0.00  0.81  0.00  0.00  0.00  0.34  0.00
  hxq4                    1.00   0.16  0.04  0.00  0.44  0.00  0.00  0.36  0.39  0.00
  hxq5                    1.00   0.04  0.48  0.00  0.48  0.00  0.00  0.00  0.55  0.00
  hxq6                    1.00   0.04  0.00  0.00  0.73  0.00  0.00  0.23  0.26  0.00
  syq1                    1.00   0.11  0.14  0.00  0.67  0.00  0.08  0.00  0.46  0.00
  syq2                    1.00   0.11  0.00  0.00  0.89  0.00  0.00  0.00  0.00  0.00
  syq3                    1.00   0.09  0.02  0.00  0.89  0.00  0.00  0.00  0.24  0.00
  syq4                    1.00   0.09  0.00  0.00  0.91  0.00  0.00  0.00  0.07  0.00
  syq5                    1.00   0.09  0.00  0.00  0.91  0.00  0.00  0.00  0.00  0.00
  syq6                    1.00   0.09  0.00  0.00  0.90  0.00  0.00  0.01  0.02  0.00
  syq7                    1.00   0.08  0.01  0.00  0.90  0.00  0.01  0.00  0.00  0.00
  syq8                    1.00   0.07  0.01  0.00  0.92  0.00  0.00  0.00  0.00  0.00
  syq9                    1.00   0.07  0.00  0.00  0.93  0.00  0.00  0.00  0.24  0.00
  syq10                   1.00   0.07  0.00  0.00  0.93  0.00  0.00  0.00  0.01  0.00
  syq11                   1.00   0.08  0.00  0.00  0.92  0.00  0.00  0.00  0.06  0.00
  syq12                   1.00   0.05  0.03  0.00  0.92  0.00  0.00  0.00  0.41  0.00
  syq13                   1.00   0.05  0.00  0.00  0.41  0.00  0.00  0.55  0.00  0.00
  xlq1                    1.00   0.04  0.36  0.00  0.60  0.00  0.00  0.00  0.43  0.00
  xlq2                    1.00   0.04  0.00  0.00  0.75  0.00  0.00  0.21  0.42  0.00
  rxq1                    1.00   0.14  0.00  0.00  0.79  0.00  0.00  0.08  0.00  0.00
  rxq2                    1.00   0.11  0.02  0.00  0.58  0.00  0.00  0.29  0.00  0.00
  rxq3                    1.00   0.04  0.31  0.00  0.61  0.00  0.04  0.00  0.35  0.00
  dcq1                    1.00   0.08  0.00  0.00  0.90  0.00  0.00  0.02  0.41  0.00
  dcq2                    1.00   0.08  0.00  0.00  0.91  0.00  0.00  0.00  0.23  0.00
  dcq3                    1.00   0.09  0.00  0.00  0.91  0.00  0.00  0.00  0.45  0.00
  dcq4                    1.00   0.09  0.00  0.00  0.70  0.00  0.00  0.21  0.31  0.00
  wjq1                    1.00   0.09  0.00  0.00  0.91  0.00  0.00  0.00  0.00  0.00
  wjq2                    1.00   0.09  0.00  0.00  0.91  0.00  0.00  0.00  0.00  0.00
  wjq3                    1.00   0.09  0.00  0.00  0.90  0.00  0.00  0.00  0.00  0.00
  wjq4                    1.00   0.06  0.03  0.00  0.91  0.00  0.00  0.00  0.00  0.00
  wjq5                    1.00   0.04  0.02  0.00  0.94  0.00  0.00  0.00  0.00  0.00
  wjq6                    1.00   0.04  0.00  0.00  0.96  0.00  0.00  0.00  0.01  0.00
  wjq7                    1.00   0.09  0.00  0.00  0.90  0.00  0.00  0.01  0.15  0.00
  jwq1                    1.00   0.21  0.00  0.00  0.75  0.00  0.00  0.04  0.24  0.00
  xhq1                    1.00   0.17  0.49  0.00  0.34  0.00  0.00  0.00  0.80  0.00
  xhq2                    1.00   0.10  0.07  0.00  0.83  0.00  0.00  0.00  0.32  0.00
  xhq3                    1.00   0.08  0.01  0.00  0.90  0.00  0.00  0.00  0.25  0.00
  xhq4                    1.00   0.06  0.02  0.00  0.92  0.00  0.00  0.00  0.12  0.00
  xhq5                    1.00   0.04  0.02  0.00  0.94  0.00  0.00  0.00  0.00  0.00
  xhq6                    1.00   0.04  0.00  0.00  0.96  0.00  0.00  0.00  0.01  0.00
  xhq7                    1.00   0.05  0.04  0.00  0.92  0.00  0.00  0.00  0.01  0.00
  xhq8                    1.00   0.05  0.00  0.00  0.50  0.00  0.00  0.45  0.00  0.00
  ynq1                    1.00   0.70  0.04  0.00  0.26  0.00  0.00  0.00  0.52  0.00
  ynq2                    1.00   0.56  0.09  0.00  0.30  0.00  0.05  0.00  0.50  0.00
  ynq3                    1.00   0.17  0.39  0.00  0.44  0.00  0.00  0.00  0.56  0.00
  ynq4                    1.00   0.10  0.08  0.00  0.56  0.00  0.00  0.27  0.07  0.00
  ynq5                    1.00   0.10  0.27  0.00  0.64  0.00  0.00  0.00  0.29  0.00
  ynq6                    1.00   0.10  0.00  0.00  0.90  0.00  0.00  0.00  0.49  0.00
  ynq7                    1.00   0.10  0.00  0.00  0.90  0.00  0.00  0.00  0.04  0.00
  ynq8                    1.00   0.10  0.01  0.00  0.89  0.00  0.00  0.00  0.21  0.00
  ynq9                    1.00   0.06  0.04  0.00  0.90  0.00  0.00  0.00  0.30  0.00
  ynq10                   1.00   0.04  0.02  0.00  0.94  0.00  0.00  0.00  0.12  0.00
  ynq11                   1.00   0.04  0.00  0.00  0.96  0.00  0.00  0.00  0.07  0.00
  ynq12                   1.00   0.08  0.00  0.00  0.31  0.00  0.00  0.60  0.00  0.00
  byq1                    1.00   0.06  0.11  0.00  0.83  0.00  0.00  0.00  0.00  0.00
  byq2                    1.00   0.04  0.03  0.00  0.94  0.00  0.00  0.00  0.12  0.00
  byq3                    1.00   0.04  0.00  0.00  0.96  0.00  0.00  0.00  0.00  0.00
  byq4                    1.00   0.05  0.03  0.00  0.92  0.00  0.00  0.00  0.10  0.00
  byq5                    1.00   0.05  0.00  0.00  0.95  0.00  0.00  0.00  0.05  0.00
  byq6                    1.00   0.04  0.02  0.00  0.94  0.00  0.00  0.00  0.08  0.00
  byq7                    1.00   0.04  0.00  0.00  0.96  0.00  0.00  0.00  0.06  0.00
  byq8                    1.00   0.04  0.00  0.00  0.96  0.00  0.00  0.00  0.04  0.00
  byq9                    1.00   0.04  0.00  0.00  0.96  0.00  0.00  0.00  0.01  0.00
  byq10                   1.00   0.04  0.05  0.00  0.91  0.00  0.00  0.00  0.10  0.00
  byq11                   1.00   0.04  0.00  0.00  0.96  0.00  0.00  0.00  0.08  0.00
  byq12                   1.00   0.07  0.00  0.00  0.92  0.00  0.00  0.00  0.04  0.00
  byq13                   1.00   0.07  0.00  0.00  0.92  0.00  0.00  0.00  0.00  0.00
  byq14                   1.00   0.08  0.00  0.00  0.92  0.00  0.00  0.00  0.00  0.00
  byq15                   1.00   0.17  0.00  0.00  0.83  0.00  0.00  0.00  0.01  0.00
  byq16                   1.00   0.20  0.01  0.00  0.80  0.00  0.00  0.00  0.00  0.00
  byq17                   1.00   0.16  0.04  0.00  0.80  0.00  0.00  0.00  0.00  0.00
  byq18                   1.00   0.16  0.00  0.00  0.84  0.00  0.00  0.00  0.00  0.00
  byq19                   1.00   0.06  0.11  0.00  0.83  0.00  0.00  0.00  0.01  0.00
  byq20                   1.00   0.04  0.02  0.00  0.94  0.00  0.00  0.00  0.02  0.00
  byq23                   1.00   0.07  0.00  0.00  0.93  0.00  0.00  0.00  0.06  0.00
  byq25                   1.00   0.22  0.00  0.00  0.78  0.00  0.00  0.00  0.00  0.00
  byq26                   1.00   0.22  0.00  0.00  0.78  0.00  0.00  0.00  0.00  0.00
  byq27                   1.00   0.20  0.02  0.00  0.77  0.00  0.00  0.00  0.00  0.00
  byq28                   1.00   0.15  0.05  0.00  0.80  0.00  0.00  0.00  0.00  0.00
  byq29                   1.00   0.04  0.12  0.00  0.85  0.00  0.00  0.00  0.00  0.00
  byq30                   1.00   0.04  0.00  0.00  0.96  0.00  0.00  0.00  0.01  0.00
  byq31                   1.00   0.06  0.03  0.00  0.91  0.00  0.00  0.00  0.02  0.00
  byq32                   1.00   0.04  0.03  0.00  0.94  0.00  0.00  0.00  0.09  0.00
  byq33                   1.00   0.04  0.00  0.00  0.96  0.00  0.00  0.00  0.00  0.00
  byq34                   1.00   0.04  0.00  0.00  0.96  0.00  0.00  0.00  0.00  0.00
  byq35                   1.00   0.04  0.06  0.00  0.89  0.00  0.00  0.00  0.02  0.00
  byq36                   1.00   0.04  0.00  0.00  0.96  0.00  0.00  0.00  0.12  0.00
  byq37                   1.00   0.04  0.03  0.00  0.94  0.00  0.00  0.00  0.01  0.00
  byq38                   1.00   0.04  0.00  0.00  0.96  0.00  0.00  0.00  0.00  0.00
  byq39                   1.00   0.07  0.00  0.00  0.93  0.00  0.00  0.00  0.00  0.00
  byq40                   1.00   0.06  0.13  0.00  0.81  0.00  0.00  0.00  0.00  0.00
  byq41                   1.00   0.04  0.02  0.00  0.94  0.00  0.00  0.00  0.01  0.00
  byq42                   1.00   0.04  0.00  0.00  0.96  0.00  0.00  0.00  0.09  0.00
  byq24                   1.00   0.04  0.00  0.00  0.96  0.00  0.00  0.00  0.00  0.00
  byq21                   1.00   0.04  0.00  0.00  0.96  0.00  0.00  0.00  0.00  0.00
  byq22                   1.00   0.07  0.00  0.00  0.93  0.00  0.00  0.00  0.10  0.00
  PFG1                    1.00   0.04  0.00  0.00  0.96  0.00  0.00  0.00  0.00  0.00
  WEG9                    1.00   1.00  0.00  0.00  0.00  0.00  0.00  0.00  0.00  0.00
  
  
  *************************
  Conduit Surcharge Summary
  *************************
  
  ----------------------------------------------------------------------------
                                                           Hours        Hours 
                         --------- Hours Full --------   Above Full   Capacity
  Conduit                Both Ends  Upstream  Dnstream   Normal Flow   Limited
  ----------------------------------------------------------------------------
  xzq8                        0.01      0.01      0.01      9.44         0.01
  wq1                         0.01      0.01      0.01     10.06         0.01
  zbq1                        0.01      0.01      0.01      6.15         0.01
  zbq2                        0.01      0.01      0.01      3.04         0.01
  zbq3                        0.01      0.01      0.01      1.58         0.01
  zbq9                        0.01      0.01      0.01      0.54         0.01
  zjq3                        0.01      0.01      0.01      1.95         0.01
  zjq12                       0.01      0.01      0.01      2.01         0.01
  zjq18                       0.01      0.01      0.01      3.11         0.01
  zjq19                       0.01      0.01      1.88      0.01         0.01
  zjq20                       0.01      0.01      2.74      0.01         0.01
  zjq21                       0.01      0.01      3.74      0.01         0.01
  zjq22                       0.01      0.01      0.01      1.53         0.01
  ndq6                        0.01      0.01      0.01      1.32         0.01
  ydq1                        0.01      0.01      0.01     11.51         0.01
  ydq2                       12.48     12.51     12.48     11.17         6.05
  ydq3                        0.01      0.01     10.31     20.98         0.01
  ydq4                        0.01      0.01      0.01     17.56         0.01
  ydq7                        0.01      0.01      0.01     24.17         0.01
  ydq9                        0.01      0.01      0.01     28.39         0.01
  ydq10                       0.01      0.01     14.01      0.01         0.01
  ydq11                       0.01      0.01      5.95      0.01         0.01
  lsq12                       1.84      1.84      8.43      0.01         0.01
  ycq1                        0.01      0.01      6.54      0.01         0.01
  ycq2                        0.01      0.01      0.01     71.15         0.01
  ycq3                        0.01      0.01      0.01     13.14         0.01
  ycq4                        0.01      0.01      0.01     15.27         0.01
  ycq5                        0.01      0.01      0.01      0.80         0.01
  ycq6                        0.01      0.01      0.01      0.93         0.01
  ycq8                        0.01      0.01      0.01     11.01         0.01
  fzq2                        0.01      0.01     17.85      0.01         0.01
  fzq3                       22.45     22.45     25.22     11.53         0.01
  jyq1                        0.01      0.01      0.01      6.23         0.01
  jyq2                        0.01      0.01      0.01      1.95         0.01
  jyq3                        0.01      0.01      0.01     66.11         0.01
  jyq4                        0.01      0.01      0.01     17.00         0.01
  jyq5                        0.01      0.01      4.62     15.19         0.01
  jyq6                        4.62      4.62     10.87     12.67         0.01
  qjq1                       13.61     15.92     13.61     17.82        13.61
  qjq2                        0.01     13.61      0.01     17.79         0.01
  qjq4                        0.01      0.01     10.91      0.01         0.01
  ywq1                        0.01      0.01      0.01     17.43         0.01
  ywq2                        0.01      0.01      0.01      0.66         0.01
  ywq3                        0.01      0.01      0.01      0.29         0.01
  wxq1                       11.53     23.40     11.53     30.24        11.53
  wxq2                        0.01     11.53      0.01     46.13         0.01
  wxq3                        0.01      0.01      0.01     30.35         0.01
  wxq4                        0.01      0.01      0.01     28.42         0.01
  wxq5                        0.01      0.01      0.01     39.40         0.01
  wxq6                        0.01      0.01      0.01     36.89         0.01
  wxq7                        0.01      0.01      0.01     37.48         0.01
  wxq8                        0.01      0.01      0.01     36.25         0.01
  dxq2                        0.01      0.01      0.01      0.52         0.01
  dxq3                        0.01      0.01      9.16      0.01         0.01
  ktq3                        0.01      0.01     36.26      0.01         0.01
  xwq5                        0.01      0.01      1.71      0.01         0.01
  hxq5                        0.01      0.01     22.43      0.01         0.01
  hxq6                       21.26     22.43     35.64      0.01         0.01
  syq1                       22.51     24.76     22.51     24.73        22.51
  syq2                       22.36     22.51     22.39     20.20        16.00
  syq3                       18.91     22.39     21.11     23.05        18.91
  syq4                        0.01      0.01      0.01      7.85         0.01
  syq5                        0.01      0.01      0.01     18.21         0.01
  syq6                        0.01      0.01      0.01      9.41         0.01
  syq13                       0.01      0.01      0.01      1.64         0.01
  xlq1                       12.88     12.88     21.13      0.01         0.01
  xlq2                       21.13     21.13     40.23      0.01         0.01
  rxq1                        0.01      0.01     21.84     13.75         0.01
  rxq2                        0.01      0.01      0.01     20.98         0.01
  dcq1                        0.01      5.13      0.01      7.38         0.01
  dcq2                        3.10      3.10      5.13      0.01         0.01
  dcq3                        3.10      3.10     16.12      0.01         0.01
  dcq4                       16.12     16.12     30.04      0.01         0.01
  wjq1                       12.25     14.53     12.25     16.64        12.25
  wjq2                       12.25     12.25     18.79      0.01         0.01
  wjq3                        0.01     18.79      0.01     39.29         0.01
  wjq4                        0.01      0.01     17.97      0.01         0.01
  wjq5                       17.70     17.97     19.49     18.68        17.70
  wjq6                       17.96     19.49     21.00      4.57         0.01
  wjq7                       21.00     21.00     24.48      0.01         0.01
  jwq1                       15.78     15.78     24.94      0.01         0.01
  xhq7                        0.01      0.01     18.45      0.01         0.01
  xhq8                       18.45     18.45     21.67     19.21         0.01
  ynq8                        0.01      0.01      0.01     11.96         0.01
  ynq11                       0.01      0.01      0.01      1.62         0.01
  byq26                       0.01      0.01      0.01     17.80         0.01
  byq27                       0.01      0.01      0.01     16.48         0.01
  byq28                       0.01      0.01      0.01     15.66         0.01
  byq29                       0.01      0.01      0.01     11.59         0.01
  byq34                       0.01      0.01      0.01     16.22         0.01
  byq35                       0.01      0.01      0.01      8.76         0.01
  byq37                       0.01      0.01      0.01      7.77         0.01
  byq39                       0.01      0.01      0.01     52.32         0.01
  byq42                       0.01      0.01      0.01      9.21         0.01
  byq24                       0.01      0.01      0.01     30.92         0.01
  

  Analysis begun on:  Mon Apr 22 08:58:54 2024
  Analysis ended on:  Mon Apr 22 08:59:11 2024
  Total elapsed time: 00:00:17