
  EPA STORM WATER MANAGEMENT MODEL - VERSION 5.2 (Build 5.2.4)
  PYSWMM TOOLKIT API - VERSION v1.0 (2023-11-27)
  ------------------------------------------------------------

  WARNING 04: minimum elevation drop used for Conduit Cond1870
  WARNING 04: minimum elevation drop used for Conduit Cond2113
  WARNING 04: minimum elevation drop used for Conduit Cond2141
  WARNING 04: minimum elevation drop used for Conduit Cond2179
  WARNING 04: minimum elevation drop used for Conduit Cond2441
  WARNING 04: minimum elevation drop used for Conduit Cond2635
  WARNING 04: minimum elevation drop used for Conduit Cond2814
  WARNING 04: minimum elevation drop used for Conduit Cond2892
  WARNING 04: minimum elevation drop used for Conduit Cond2956
  WARNING 04: minimum elevation drop used for Conduit Cond3242
  WARNING 04: minimum elevation drop used for Conduit Cond3315
  WARNING 04: minimum elevation drop used for Conduit Cond3316
  WARNING 04: minimum elevation drop used for Conduit Cond3362
  WARNING 04: minimum elevation drop used for Conduit Cond3497
  WARNING 04: minimum elevation drop used for Conduit Cond3733
  WARNING 04: minimum elevation drop used for Conduit Cond3734
  WARNING 04: minimum elevation drop used for Conduit Cond3796
  WARNING 04: minimum elevation drop used for Conduit Cond3797
  WARNING 04: minimum elevation drop used for Conduit Cond3986
  WARNING 04: minimum elevation drop used for Conduit Cond4187
  WARNING 04: minimum elevation drop used for Conduit Cond4354
  WARNING 04: minimum elevation drop used for Conduit Cond4510
  
  ****************
  Analysis Options
  ****************
  Flow Units ............... CMS
  Process Models:
    Rainfall/Runoff ........ YES
    RDII ................... NO
    Snowmelt ............... NO
    Groundwater ............ NO
    Flow Routing ........... YES
    Ponding Allowed ........ YES
    Water Quality .......... NO
  Infiltration Method ...... HORTON
  Flow Routing Method ...... DYNWAVE
  Surcharge Method ......... EXTRAN
  Starting Date ............ 07/21/2023 00:00:00
  Ending Date .............. 07/24/2023 00:00:00
  Antecedent Dry Days ...... 0.0
  Report Time Step ......... 01:00:00
  Wet Time Step ............ 00:01:00
  Dry Time Step ............ 00:01:00
  Routing Time Step ........ 5.00 sec
  Variable Time Step ....... YES
  Maximum Trials ........... 8
  Number of Threads ........ 1
  Head Tolerance ........... 0.001500 m
  
  
  **************************        Volume         Depth
  Runoff Quantity Continuity     hectare-m            mm
  **************************     ---------       -------
  Total Precipitation ......         3.278       103.100
  Evaporation Loss .........         0.000         0.000
  Infiltration Loss ........         0.239         7.508
  Surface Runoff ...........         2.804        88.192
  Final Storage ............         0.235         7.402
  Continuity Error (%) .....        -0.002
  
  
  **************************        Volume        Volume
  Flow Routing Continuity        hectare-m      10^6 ltr
  **************************     ---------     ---------
  Dry Weather Inflow .......         0.000         0.000
  Wet Weather Inflow .......         2.804        28.041
  Groundwater Inflow .......         0.000         0.000
  RDII Inflow ..............         0.000         0.000
  External Inflow ..........         0.000         0.000
  External Outflow .........         2.274        22.742
  Flooding Loss ............         0.527         5.265
  Evaporation Loss .........         0.000         0.000
  Exfiltration Loss ........         0.000         0.000
  Initial Stored Volume ....         0.000         0.000
  Final Stored Volume ......         0.006         0.062
  Continuity Error (%) .....        -0.098
  
  
  *************************
  Highest Continuity Errors
  *************************
  Node Y031230 (-1.61%)
  Node Y037063 (1.07%)
  
  
  ***************************
  Time-Step Critical Elements
  ***************************
  Link Cond3150 (52.87%)
  Link Cond2611 (29.79%)
  Link Cond4436 (7.45%)
  Link Cond1632 (3.74%)
  Link Cond2954 (1.96%)
  
  
  ********************************
  Highest Flow Instability Indexes
  ********************************
  Link Cond4436 (23)
  Link Cond3150 (21)
  Link Cond3986 (16)
  Link Cond1653 (14)
  Link Cond2611 (14)
  
  
  *********************************
  Most Frequent Nonconverging Nodes
  *********************************
  Node PSK (8.26%)
  Node Y036038 (3.36%)
  Node Y031393 (2.17%)
  Node Y031829 (1.02%)
  Node Y037549 (0.77%)
  
  
  *************************
  Routing Time Step Summary
  *************************
  Minimum Time Step           :     0.06 sec
  Average Time Step           :     1.57 sec
  Maximum Time Step           :     5.00 sec
  % of Time in Steady State   :     0.00
  Average Iterations per Step :     2.73
  % of Steps Not Converging   :     8.26
  Time Step Frequencies       :
      5.000 -  3.155 sec      :     8.41 %
      3.155 -  1.991 sec      :    21.27 %
      1.991 -  1.256 sec      :    21.36 %
      1.256 -  0.792 sec      :    21.22 %
      0.792 -  0.500 sec      :    27.73 %
  
  
  ***************************
  Subcatchment Runoff Summary
  ***************************
  
  ------------------------------------------------------------------------------------------------------------------------------
                            Total      Total      Total      Total     Imperv       Perv      Total       Total     Peak  Runoff
                           Precip      Runon       Evap      Infil     Runoff     Runoff     Runoff      Runoff   Runoff   Coeff
  Subcatchment                 mm         mm         mm         mm         mm         mm         mm    10^6 ltr      CMS
  ------------------------------------------------------------------------------------------------------------------------------
  sub1                     103.10       0.00       0.00       7.37      85.47       2.94      88.40        0.18     0.02   0.857
  sub2                     103.10       0.00       0.00       7.43      85.38       2.88      88.27        0.12     0.01   0.856
  sub3                     103.10       0.00       0.00       7.39      85.44       2.92      88.36        0.10     0.01   0.857
  sub4                     103.10       0.00       0.00       7.39      85.45       2.92      88.37        0.10     0.01   0.857
  sub5                     103.10       0.00       0.00       7.43      85.37       2.88      88.25        0.12     0.01   0.856
  sub6                     103.10       0.00       0.00       7.43      85.38       2.88      88.27        0.11     0.01   0.856
  sub7                     103.10       0.00       0.00       7.41      85.41       2.90      88.31        0.13     0.01   0.857
  sub8                     103.10       0.00       0.00       7.40      85.43       2.91      88.34        0.18     0.02   0.857
  sub9                     103.10       0.00       0.00       7.38      85.46       2.94      88.40        0.09     0.01   0.857
  sub10                    103.10       0.00       0.00       7.45      85.35       2.86      88.21        0.16     0.02   0.856
  sub11                    103.10       0.00       0.00       7.44      85.36       2.87      88.23        0.21     0.02   0.856
  sub12                    103.10       0.00       0.00       7.44      85.35       2.87      88.22        0.21     0.02   0.856
  sub13                    103.10       0.00       0.00       7.45      85.33       2.86      88.19        0.21     0.02   0.855
  sub14                    103.10       0.00       0.00       7.39      85.44       2.92      88.36        0.14     0.02   0.857
  sub15                    103.10       0.00       0.00       7.40      85.43       2.91      88.35        0.15     0.02   0.857
  sub16                    103.10       0.00       0.00       7.44      85.36       2.87      88.24        0.20     0.02   0.856
  sub17                    103.10       0.00       0.00       7.47      85.30       2.84      88.14        0.15     0.01   0.855
  sub18                    103.10       0.00       0.00       7.39      85.44       2.92      88.37        0.11     0.01   0.857
  sub19                    103.10       0.00       0.00       7.38      85.46       2.93      88.39        0.06     0.01   0.857
  sub20                    103.10       0.00       0.00       7.38      85.46       2.93      88.40        0.11     0.01   0.857
  sub21                    103.10       0.00       0.00       7.45      85.33       2.86      88.19        0.26     0.02   0.855
  sub22                    103.10       0.00       0.00       7.51      85.21       2.80      88.01        0.33     0.03   0.854
  sub23                    103.10       0.00       0.00       7.44      85.36       2.87      88.23        0.12     0.01   0.856
  sub24                    103.10       0.00       0.00       7.57      85.03       2.74      87.77        0.40     0.03   0.851
  sub25                    103.10       0.00       0.00       7.39      85.44       2.92      88.36        0.10     0.01   0.857
  sub26                    103.10       0.00       0.00       7.27      85.56       3.04      88.60        0.01     0.00   0.859
  sub27                    103.10       0.00       0.00       7.37      85.47       2.94      88.42        0.10     0.01   0.858
  sub28                    103.10       0.00       0.00       7.41      85.40       2.90      88.30        0.09     0.01   0.856
  sub29                    103.10       0.00       0.00       7.40      85.42       2.91      88.33        0.14     0.02   0.857
  sub30                    103.10       0.00       0.00       7.46      85.31       2.85      88.16        0.30     0.03   0.855
  sub31                    103.10       0.00       0.00       7.45      85.35       2.87      88.21        0.15     0.01   0.856
  sub32                    103.10       0.00       0.00       7.39      85.45       2.93      88.37        0.10     0.01   0.857
  sub33                    103.10       0.00       0.00       7.51      85.20       2.80      88.00        0.37     0.03   0.853
  sub34                    103.10       0.00       0.00       7.49      85.26       2.83      88.09        0.14     0.01   0.854
  sub35                    103.10       0.00       0.00       7.36      85.48       2.95      88.43        0.07     0.01   0.858
  sub36                    103.10       0.00       0.00       7.48      85.28       2.84      88.12        0.24     0.02   0.855
  sub37                    103.10       0.00       0.00       7.39      85.44       2.92      88.37        0.09     0.01   0.857
  sub38                    103.10       0.00       0.00       7.43      85.37       2.88      88.25        0.15     0.02   0.856
  sub39                    103.10       0.00       0.00       7.45      85.34       2.86      88.20        0.21     0.02   0.855
  sub40                    103.10       0.00       0.00       7.41      85.41       2.90      88.31        0.22     0.02   0.857
  sub41                    103.10       0.00       0.00       7.43      85.38       2.89      88.27        0.22     0.02   0.856
  sub42                    103.10       0.00       0.00       7.47      85.30       2.84      88.14        0.21     0.02   0.855
  sub43                    103.10       0.00       0.00       7.54      85.12       2.77      87.90        0.25     0.02   0.853
  sub44                    103.10       0.00       0.00       7.34      85.50       2.97      88.47        0.05     0.01   0.858
  sub45                    103.10       0.00       0.00       7.30      85.53       3.01      88.54        0.04     0.01   0.859
  sub46                    103.10       0.00       0.00       7.45      85.35       2.87      88.21        0.15     0.01   0.856
  sub47                    103.10       0.00       0.00       7.41      85.41       2.90      88.31        0.12     0.01   0.857
  sub48                    103.10       0.00       0.00       7.41      85.41       2.90      88.31        0.19     0.02   0.857
  sub49                    103.10       0.00       0.00       7.34      85.51       2.97      88.48        0.07     0.01   0.858
  sub50                    103.10       0.00       0.00       7.40      85.42       2.91      88.33        0.11     0.01   0.857
  sub51                    103.10       0.00       0.00       8.58      83.95       3.30      87.25        0.13     0.01   0.846
  sub52                    103.10       0.00       0.00       7.48      85.33       2.98      88.31        0.09     0.01   0.857
  sub53                    103.10       0.00       0.00       7.47      85.30       2.84      88.14        0.25     0.02   0.855
  sub54                    103.10       0.00       0.00       7.36      85.48       2.95      88.43        0.10     0.01   0.858
  sub55                    103.10       0.00       0.00       7.28      85.55       3.03      88.58        0.02     0.00   0.859
  sub56                    103.10       0.00       0.00       7.44      85.36       2.87      88.24        0.28     0.03   0.856
  sub57                    103.10       0.00       0.00       7.37      85.47       2.94      88.42        0.13     0.02   0.858
  sub58                    103.10       0.00       0.00       7.43      85.37       2.88      88.25        0.18     0.02   0.856
  sub59                    103.10       0.00       0.00       7.38      85.46       2.93      88.39        0.12     0.01   0.857
  sub60                    103.10       0.00       0.00       7.33      85.52       2.98      88.50        0.05     0.01   0.858
  sub61                    103.10       0.00       0.00       7.40      85.42       2.91      88.33        0.15     0.02   0.857
  sub62                    103.10       0.00       0.00       7.31      85.53       3.00      88.52        0.03     0.01   0.859
  sub63                    103.10       0.00       0.00       7.29      85.54       3.02      88.56        0.02     0.00   0.859
  sub64                    103.10       0.00       0.00       7.37      85.47       2.94      88.42        0.10     0.01   0.858
  sub65                    103.10       0.00       0.00       7.35      85.50       2.96      88.46        0.09     0.01   0.858
  sub66                    103.10       0.00       0.00       7.29      85.55       3.03      88.57        0.03     0.00   0.859
  sub67                    103.10       0.00       0.00       7.32      85.52       2.99      88.52        0.04     0.01   0.859
  sub68                    103.10       0.00       0.00       7.30      85.54       3.02      88.56        0.03     0.00   0.859
  sub69                    103.10       0.00       0.00       7.33      85.52       2.98      88.50        0.04     0.01   0.858
  sub70                    103.10       0.00       0.00       7.34      85.50       2.97      88.48        0.09     0.01   0.858
  sub71                    103.10       0.00       0.00       7.37      85.47       2.95      88.42        0.07     0.01   0.858
  sub72                    103.10       0.00       0.00       7.50      85.23       2.81      88.05        0.14     0.01   0.854
  sub73                    103.10       0.00       0.00       7.43      85.38       2.88      88.27        0.17     0.02   0.856
  sub74                    103.10       0.00       0.00       7.36      85.48       2.95      88.43        0.08     0.01   0.858
  sub75                    103.10       0.00       0.00       7.40      85.42       2.91      88.33        0.13     0.01   0.857
  sub76                    103.10       0.00       0.00       7.35      85.49       2.96      88.46        0.07     0.01   0.858
  sub77                    103.10       0.00       0.00      11.06      80.85       4.24      85.09        0.12     0.01   0.825
  sub78                    103.10       0.00       0.00       7.38      85.46       2.93      88.39        0.07     0.01   0.857
  sub79                    103.10       0.00       0.00       7.39      85.44       2.92      88.36        0.13     0.01   0.857
  sub80                    103.10       0.00       0.00       7.40      85.43       2.92      88.35        0.12     0.01   0.857
  sub81                    103.10       0.00       0.00       7.52      85.17       2.79      87.95        0.36     0.03   0.853
  sub82                    103.10       0.00       0.00       7.35      85.50       2.96      88.46        0.05     0.01   0.858
  sub83                    103.10       0.00       0.00      14.03      77.28       5.07      82.35        0.19     0.02   0.799
  sub84                    103.10       0.00       0.00       7.35      85.49       2.96      88.45        0.08     0.01   0.858
  sub85                    103.10       0.00       0.00       7.37      85.48       2.95      88.42        0.10     0.01   0.858
  sub86                    103.10       0.00       0.00       7.37      85.47       2.94      88.42        0.09     0.01   0.858
  sub87                    103.10       0.00       0.00       7.40      85.43       2.91      88.34        0.16     0.02   0.857
  sub88                    103.10       0.00       0.00       7.40      85.43       2.91      88.35        0.14     0.02   0.857
  sub89                    103.10       0.00       0.00       7.42      85.39       2.89      88.28        0.20     0.02   0.856
  sub90                    103.10       0.00       0.00       7.40      85.43       2.91      88.34        0.13     0.01   0.857
  sub91                    103.10       0.00       0.00       7.36      85.48       2.95      88.44        0.07     0.01   0.858
  sub92                    103.10       0.00       0.00       7.42      85.40       2.89      88.29        0.16     0.02   0.856
  sub93                    103.10       0.00       0.00       7.38      85.45       2.93      88.38        0.08     0.01   0.857
  sub94                    103.10       0.00       0.00       7.39      85.44       2.92      88.36        0.05     0.01   0.857
  sub95                    103.10       0.00       0.00       7.69      85.04       2.95      88.00        0.21     0.02   0.853
  sub96                    103.10       0.00       0.00       7.38      85.45       2.93      88.38        0.08     0.01   0.857
  sub97                    103.10       0.00       0.00       7.36      85.48       2.95      88.43        0.05     0.01   0.858
  sub98                    103.10       0.00       0.00       7.39      85.45       2.92      88.37        0.11     0.01   0.857
  sub99                    103.10       0.00       0.00       7.38      85.45       2.93      88.38        0.09     0.01   0.857
  sub100                   103.10       0.00       0.00       7.40      85.43       2.91      88.34        0.07     0.01   0.857
  sub101                   103.10       0.00       0.00       7.36      85.48       2.95      88.43        0.04     0.00   0.858
  sub102                   103.10       0.00       0.00       7.41      85.41       2.90      88.31        0.12     0.01   0.857
  sub103                   103.10       0.00       0.00       7.42      85.39       2.89      88.27        0.12     0.01   0.856
  sub104                   103.10       0.00       0.00       7.41      85.42       2.91      88.32        0.05     0.01   0.857
  sub105                   103.10       0.00       0.00       7.34      85.50       2.97      88.47        0.05     0.01   0.858
  sub106                   103.10       0.00       0.00       7.52      85.18       2.79      87.98        0.19     0.02   0.853
  sub107                   103.10       0.00       0.00       7.37      85.47       2.94      88.41        0.12     0.02   0.858
  sub108                   103.10       0.00       0.00       7.40      85.43       2.91      88.35        0.17     0.02   0.857
  sub109                   103.10       0.00       0.00       7.40      85.43       2.91      88.34        0.12     0.01   0.857
  sub110                   103.10       0.00       0.00       7.33      85.51       2.98      88.49        0.06     0.01   0.858
  sub111                   103.10       0.00       0.00       7.28      85.55       3.03      88.58        0.03     0.00   0.859
  sub112                   103.10       0.00       0.00       7.33      85.52       2.99      88.50        0.04     0.01   0.858
  sub113                   103.10       0.00       0.00       7.29      85.55       3.02      88.57        0.02     0.00   0.859
  sub114                   103.10       0.00       0.00       7.29      85.55       3.02      88.57        0.02     0.00   0.859
  sub115                   103.10       0.00       0.00       7.32      85.53       3.00      88.52        0.03     0.00   0.859
  sub116                   103.10       0.00       0.00       7.34      85.50       2.97      88.48        0.04     0.01   0.858
  sub117                   103.10       0.00       0.00       7.32      85.52       2.99      88.51        0.04     0.01   0.859
  sub118                   103.10       0.00       0.00       7.34      85.51       2.98      88.48        0.05     0.01   0.858
  sub119                   103.10       0.00       0.00       7.29      85.55       3.03      88.57        0.02     0.00   0.859
  sub120                   103.10       0.00       0.00       7.38      85.46       2.93      88.39        0.06     0.01   0.857
  sub121                   103.10       0.00       0.00       7.38      85.45       2.93      88.38        0.12     0.01   0.857
  sub122                   103.10       0.00       0.00       7.32      85.52       2.99      88.51        0.06     0.01   0.859
  sub123                   103.10       0.00       0.00       7.42      85.40       2.89      88.29        0.18     0.02   0.856
  sub124                   103.10       0.00       0.00       7.26      85.56       3.05      88.61        0.01     0.00   0.859
  sub125                   103.10       0.00       0.00       7.35      85.49       2.96      88.45        0.04     0.01   0.858
  sub126                   103.10       0.00       0.00       7.34      85.51       2.98      88.48        0.02     0.00   0.858
  sub127                   103.10       0.00       0.00       7.27      85.56       3.04      88.60        0.01     0.00   0.859
  sub128                   103.10       0.00       0.00       7.28      85.55       3.04      88.59        0.01     0.00   0.859
  sub129                   103.10       0.00       0.00       7.47      85.29       2.84      88.13        0.15     0.01   0.855
  sub130                   103.10       0.00       0.00       7.29      85.54       3.02      88.56        0.02     0.00   0.859
  sub131                   103.10       0.00       0.00       7.34      85.50       2.97      88.48        0.05     0.01   0.858
  sub132                   103.10       0.00       0.00       7.37      85.47       2.95      88.42        0.05     0.01   0.858
  sub133                   103.10       0.00       0.00       7.27      85.56       3.04      88.60        0.00     0.00   0.859
  sub134                   103.10       0.00       0.00       7.39      85.44       2.92      88.36        0.10     0.01   0.857
  sub135                   103.10       0.00       0.00       7.33      85.51       2.98      88.50        0.05     0.01   0.858
  sub136                   103.10       0.00       0.00       7.36      85.49       2.96      88.44        0.04     0.01   0.858
  sub137                   103.10       0.00       0.00       7.33      85.51       2.98      88.49        0.04     0.00   0.858
  sub138                   103.10       0.00       0.00       7.29      85.54       3.02      88.56        0.02     0.00   0.859
  sub139                   103.10       0.00       0.00       7.34      85.51       2.97      88.48        0.05     0.01   0.858
  sub140                   103.10       0.00       0.00       7.30      85.53       3.01      88.54        0.03     0.00   0.859
  sub141                   103.10       0.00       0.00       7.36      85.48       2.95      88.42        0.08     0.01   0.858
  sub142                   103.10       0.00       0.00       7.39      85.44       2.92      88.36        0.12     0.01   0.857
  sub143                   103.10       0.00       0.00       7.37      85.47       2.94      88.41        0.09     0.01   0.857
  sub144                   103.10       0.00       0.00       7.49      85.25       2.82      88.08        0.14     0.01   0.854
  sub145                   103.10       0.00       0.00       7.47      85.30       2.84      88.15        0.24     0.02   0.855
  sub146                   103.10       0.00       0.00       7.41      85.41       2.90      88.31        0.07     0.01   0.857
  sub147                   103.10       0.00       0.00       7.35      85.50       2.96      88.46        0.05     0.01   0.858
  sub148                   103.10       0.00       0.00       7.33      85.52       2.98      88.50        0.05     0.01   0.858
  sub149                   103.10       0.00       0.00       7.33      85.51       2.98      88.50        0.03     0.00   0.858
  sub150                   103.10       0.00       0.00       7.31      85.53       3.01      88.54        0.03     0.00   0.859
  sub151                   103.10       0.00       0.00       7.35      85.49       2.96      88.44        0.09     0.01   0.858
  sub152                   103.10       0.00       0.00       7.30      85.54       3.01      88.54        0.03     0.00   0.859
  sub153                   103.10       0.00       0.00       7.32      85.52       2.99      88.52        0.03     0.00   0.859
  sub154                   103.10       0.00       0.00       7.37      85.47       2.94      88.41        0.10     0.01   0.857
  sub155                   103.10       0.00       0.00       7.37      85.46       2.94      88.40        0.06     0.01   0.857
  sub156                   103.10       0.00       0.00       7.35      85.49       2.96      88.46        0.07     0.01   0.858
  sub157                   103.10       0.00       0.00       7.33      85.51       2.98      88.49        0.03     0.00   0.858
  sub158                   103.10       0.00       0.00       7.35      85.49       2.96      88.45        0.06     0.01   0.858
  sub159                   103.10       0.00       0.00       7.48      85.28       2.84      88.12        0.19     0.02   0.855
  sub160                   103.10       0.00       0.00       7.40      85.43       2.92      88.35        0.10     0.01   0.857
  sub161                   103.10       0.00       0.00       7.32      85.52       2.99      88.51        0.03     0.00   0.858
  sub162                   103.10       0.00       0.00       7.36      85.48       2.95      88.42        0.05     0.01   0.858
  sub163                   103.10       0.00       0.00       7.41      85.41       2.90      88.32        0.11     0.01   0.857
  sub164                   103.10       0.00       0.00       7.40      85.43       2.91      88.35        0.14     0.02   0.857
  sub165                   103.10       0.00       0.00       7.36      85.49       2.95      88.44        0.06     0.01   0.858
  sub166                   103.10       0.00       0.00       7.42      85.40       2.89      88.30        0.15     0.02   0.856
  sub167                   103.10       0.00       0.00       7.36      85.48       2.95      88.44        0.08     0.01   0.858
  sub168                   103.10       0.00       0.00       7.38      85.45       2.93      88.38        0.07     0.01   0.857
  sub169                   103.10       0.00       0.00       7.39      85.45       2.93      88.37        0.05     0.01   0.857
  sub170                   103.10       0.00       0.00       7.36      85.48       2.95      88.43        0.06     0.01   0.858
  sub171                   103.10       0.00       0.00       7.32      85.53       3.00      88.52        0.03     0.00   0.859
  sub172                   103.10       0.00       0.00       7.39      85.44       2.92      88.36        0.11     0.01   0.857
  sub173                   103.10       0.00       0.00       7.36      85.48       2.95      88.44        0.05     0.01   0.858
  sub174                   103.10       0.00       0.00       7.40      85.43       2.91      88.34        0.14     0.02   0.857
  sub175                   103.10       0.00       0.00       7.36      85.48       2.95      88.43        0.04     0.01   0.858
  sub176                   103.10       0.00       0.00       7.37      85.47       2.94      88.41        0.05     0.01   0.857
  sub177                   103.10       0.00       0.00       7.37      85.47       2.94      88.41        0.07     0.01   0.857
  sub178                   103.10       0.00       0.00       7.36      85.48       2.95      88.42        0.08     0.01   0.858
  sub179                   103.10       0.00       0.00       7.40      85.43       2.91      88.35        0.12     0.01   0.857
  sub180                   103.10       0.00       0.00       7.44      85.36       2.87      88.23        0.16     0.02   0.856
  sub181                   103.10       0.00       0.00       7.31      85.53       3.00      88.52        0.04     0.01   0.859
  sub182                   103.10       0.00       0.00       7.26      85.56       3.05      88.62        0.01     0.00   0.860
  sub183                   103.10       0.00       0.00       7.27      85.56       3.04      88.60        0.01     0.00   0.859
  sub184                   103.10       0.00       0.00       7.32      85.52       2.99      88.52        0.02     0.00   0.859
  sub185                   103.10       0.00       0.00       7.29      85.54       3.02      88.56        0.01     0.00   0.859
  sub186                   103.10       0.00       0.00       7.42      85.39       2.89      88.28        0.09     0.01   0.856
  sub187                   103.10       0.00       0.00       7.55      85.09       2.76      87.85        0.38     0.03   0.852
  sub188                   103.10       0.00       0.00       7.41      85.41       2.90      88.31        0.10     0.01   0.857
  sub189                   103.10       0.00       0.00       7.37      85.47       2.94      88.41        0.05     0.01   0.857
  sub190                   103.10       0.00       0.00       7.93      84.75       3.05      87.80        0.25     0.03   0.852
  sub191                   103.10       0.00       0.00       8.19      84.43       3.15      87.58        0.20     0.02   0.850
  sub192                   103.10       0.00       0.00       7.37      85.47       2.94      88.42        0.10     0.01   0.858
  sub193                   103.10       0.00       0.00       7.37      85.48       2.95      88.42        0.06     0.01   0.858
  sub194                   103.10       0.00       0.00       8.51      84.03       3.27      87.30        0.19     0.02   0.847
  sub195                   103.10       0.00       0.00       7.38      85.45       2.93      88.38        0.11     0.01   0.857
  sub196                   103.10       0.00       0.00       7.58      84.98       2.73      87.71        0.36     0.03   0.851
  sub197                   103.10       0.00       0.00       7.33      85.51       2.98      88.49        0.03     0.00   0.858
  sub198                   103.10       0.00       0.00       7.24      85.57       3.07      88.64        0.00     0.00   0.860
  sub199                   103.10       0.00       0.00       7.41      85.41       2.90      88.31        0.10     0.01   0.857
  sub200                   103.10       0.00       0.00       7.39      85.45       2.93      88.38        0.09     0.01   0.857
  sub201                   103.10       0.00       0.00       7.38      85.45       2.93      88.38        0.15     0.02   0.857
  sub202                   103.10       0.00       0.00       7.31      85.53       3.00      88.53        0.03     0.00   0.859
  sub203                   103.10       0.00       0.00       7.35      85.49       2.96      88.45        0.03     0.00   0.858
  sub204                   103.10       0.00       0.00       7.39      85.45       2.93      88.37        0.06     0.01   0.857
  sub205                   103.10       0.00       0.00       7.34      85.51       2.97      88.48        0.04     0.01   0.858
  sub206                   103.10       0.00       0.00       7.45      85.34       2.86      88.20        0.19     0.02   0.855
  sub207                   103.10       0.00       0.00       7.39      85.44       2.92      88.37        0.03     0.00   0.857
  sub208                   103.10       0.00       0.00       7.32      85.52       2.99      88.52        0.03     0.00   0.859
  sub209                   103.10       0.00       0.00       7.37      85.47       2.95      88.42        0.04     0.01   0.858
  sub210                   103.10       0.00       0.00       7.33      85.51       2.98      88.50        0.03     0.00   0.858
  sub211                   103.10       0.00       0.00       7.44      85.36       2.87      88.23        0.11     0.01   0.856
  sub212                   103.10       0.00       0.00       7.36      85.48       2.95      88.43        0.06     0.01   0.858
  sub213                   103.10       0.00       0.00       7.35      85.50       2.97      88.46        0.05     0.01   0.858
  sub214                   103.10       0.00       0.00       7.37      85.47       2.94      88.41        0.07     0.01   0.858
  sub215                   103.10       0.00       0.00       7.38      85.46       2.93      88.39        0.08     0.01   0.857
  sub216                   103.10       0.00       0.00       7.30      85.54       3.02      88.56        0.03     0.00   0.859
  sub217                   103.10       0.00       0.00       7.30      85.54       3.01      88.55        0.03     0.01   0.859
  sub218                   103.10       0.00       0.00       7.37      85.47       2.94      88.41        0.07     0.01   0.858
  sub219                   103.10       0.00       0.00       7.36      85.48       2.95      88.43        0.11     0.01   0.858
  sub220                   103.10       0.00       0.00       7.28      85.55       3.03      88.59        0.02     0.00   0.859
  sub221                   103.10       0.00       0.00       7.30      85.54       3.01      88.55        0.03     0.00   0.859
  sub222                   103.10       0.00       0.00       7.31      85.53       3.01      88.54        0.04     0.01   0.859
  sub223                   103.10       0.00       0.00       7.44      85.35       2.87      88.22        0.17     0.02   0.856
  sub224                   103.10       0.00       0.00       7.34      85.50       2.97      88.47        0.05     0.01   0.858
  sub225                   103.10       0.00       0.00       7.47      85.29       2.84      88.14        0.18     0.02   0.855
  sub226                   103.10       0.00       0.00       7.44      85.36       2.87      88.23        0.24     0.02   0.856
  sub227                   103.10       0.00       0.00       7.38      85.45       2.93      88.38        0.07     0.01   0.857
  sub228                   103.10       0.00       0.00       7.48      85.27       2.83      88.10        0.32     0.03   0.855
  sub229                   103.10       0.00       0.00       7.43      85.38       2.88      88.26        0.13     0.01   0.856
  sub230                   103.10       0.00       0.00       7.36      85.48       2.95      88.43        0.09     0.01   0.858
  sub231                   103.10       0.00       0.00       7.38      85.45       2.93      88.38        0.08     0.01   0.857
  sub232                   103.10       0.00       0.00       7.29      85.55       3.02      88.57        0.02     0.00   0.859
  sub233                   103.10       0.00       0.00       7.36      85.48       2.95      88.43        0.05     0.01   0.858
  sub234                   103.10       0.00       0.00       7.41      85.41       2.90      88.32        0.12     0.01   0.857
  sub235                   103.10       0.00       0.00       7.37      85.47       2.95      88.42        0.05     0.01   0.858
  sub236                   103.10       0.00       0.00       7.40      85.43       2.91      88.34        0.11     0.01   0.857
  sub237                   103.10       0.00       0.00       7.34      85.51       2.97      88.48        0.03     0.00   0.858
  sub238                   103.10       0.00       0.00       7.38      85.46       2.93      88.39        0.06     0.01   0.857
  sub239                   103.10       0.00       0.00       7.37      85.47       2.94      88.41        0.08     0.01   0.858
  sub240                   103.10       0.00       0.00       7.38      85.46       2.93      88.39        0.07     0.01   0.857
  sub241                   103.10       0.00       0.00       7.37      85.46       2.94      88.40        0.03     0.00   0.857
  sub242                   103.10       0.00       0.00       7.37      85.47       2.94      88.42        0.07     0.01   0.858
  sub243                   103.10       0.00       0.00       7.37      85.46       2.94      88.40        0.11     0.01   0.857
  sub244                   103.10       0.00       0.00       7.35      85.49       2.96      88.45        0.08     0.01   0.858
  sub245                   103.10       0.00       0.00       7.37      85.47       2.94      88.41        0.10     0.01   0.858
  sub246                   103.10       0.00       0.00       7.30      85.54       3.01      88.55        0.04     0.01   0.859
  sub247                   103.10       0.00       0.00       7.54      85.11       2.77      87.88        0.35     0.03   0.852
  sub248                   103.10       0.00       0.00       7.37      85.47       2.94      88.42        0.08     0.01   0.858
  sub249                   103.10       0.00       0.00       7.38      85.46       2.93      88.39        0.05     0.01   0.857
  sub250                   103.10       0.00       0.00       7.33      85.51       2.98      88.49        0.02     0.00   0.858
  sub251                   103.10       0.00       0.00       7.43      85.38       2.88      88.26        0.20     0.02   0.856
  sub252                   103.10       0.00       0.00       7.39      85.44       2.92      88.35        0.13     0.01   0.857
  sub253                   103.10       0.00       0.00       7.44      85.35       2.87      88.22        0.18     0.02   0.856
  sub254                   103.10       0.00       0.00       7.46      85.31       2.85      88.16        0.27     0.03   0.855
  sub255                   103.10       0.00       0.00       7.42      85.39       2.89      88.27        0.19     0.02   0.856
  sub256                   103.10       0.00       0.00       7.42      85.39       2.89      88.27        0.18     0.02   0.856
  sub257                   103.10       0.00       0.00       7.43      85.37       2.88      88.25        0.19     0.02   0.856
  sub258                   103.10       0.00       0.00       7.44      85.36       2.87      88.23        0.20     0.02   0.856
  sub259                   103.10       0.00       0.00       7.43      85.37       2.88      88.25        0.19     0.02   0.856
  sub260                   103.10       0.00       0.00       7.42      85.39       2.89      88.28        0.16     0.02   0.856
  sub261                   103.10       0.00       0.00       7.42      85.39       2.89      88.28        0.15     0.02   0.856
  sub262                   103.10       0.00       0.00       7.35      85.49       2.96      88.45        0.11     0.01   0.858
  sub263                   103.10       0.00       0.00       7.31      85.53       3.01      88.54        0.04     0.01   0.859
  sub264                   103.10       0.00       0.00       7.44      85.36       2.87      88.23        0.24     0.02   0.856
  sub265                   103.10       0.00       0.00       7.35      85.50       2.97      88.46        0.10     0.01   0.858
  sub266                   103.10       0.00       0.00       7.35      85.49       2.96      88.45        0.05     0.01   0.858
  
  
  ******************
  Node Depth Summary
  ******************
  
  ---------------------------------------------------------------------------------
                                 Average  Maximum  Maximum  Time of Max    Reported
                                   Depth    Depth      HGL   Occurrence   Max Depth
  Node                 Type       Meters   Meters   Meters  days hr:min      Meters
  ---------------------------------------------------------------------------------
  Y029640              JUNCTION     0.09     1.09    44.75     1  08:02        0.74
  Y029650              JUNCTION     0.12     1.39    44.78     1  08:11        1.23
  Y029652              JUNCTION     0.11     0.82    44.75     1  08:11        0.65
  Y029653              JUNCTION     0.09     1.21    44.92     1  08:11        0.94
  Y029657              JUNCTION     0.21     2.87    42.37     1  08:15        2.18
  Y029885              JUNCTION     0.06     0.83    44.81     1  08:11        0.59
  Y029887              JUNCTION     0.07     0.48    43.76     1  08:47        0.45
  Y029904              JUNCTION     0.26     1.27    44.00     1  08:02        1.27
  Y029905              JUNCTION     0.32     1.23    44.89     1  08:01        1.21
  Y029942              JUNCTION     0.02     0.44    44.69     1  08:21        0.27
  Y029945              JUNCTION     0.15     0.98    44.57     1  08:31        0.96
  Y029946              JUNCTION     0.16     1.62    44.59     1  08:11        1.60
  Y029947              JUNCTION     0.22     2.50    41.79     1  08:46        2.18
  Y029949              JUNCTION     0.09     0.92    44.45     1  08:02        0.83
  Y029950              JUNCTION     0.16     1.22    43.78     1  08:36        1.01
  Y029959              JUNCTION     0.09     0.97    44.45     1  08:46        0.83
  Y029961              JUNCTION     0.27     2.13    40.93     1  08:47        1.85
  Y029962              JUNCTION     0.03     1.19    45.20     1  08:28        0.61
  Y029963              JUNCTION     0.20     1.55    45.52     1  08:17        1.53
  Y030009              JUNCTION     0.03     0.59    44.61     1  08:29        0.40
  Y030023              JUNCTION     0.04     0.69    44.92     1  08:29        0.52
  Y030024              JUNCTION     0.17     1.42    44.80     1  08:29        1.15
  Y030078              JUNCTION     0.32     1.62    44.85     1  08:29        1.32
  Y030099              JUNCTION     0.07     1.32    45.08     1  08:02        0.64
  Y030124              JUNCTION     0.52     1.89    45.51     1  08:46        1.89
  Y030134              JUNCTION     0.11     0.95    44.86     1  08:01        0.95
  Y030135              JUNCTION     0.25     1.62    45.15     1  08:45        1.59
  Y030179              JUNCTION     0.04     0.83    44.58     1  08:45        0.67
  Y030217              JUNCTION     0.07     0.39    43.43     1  08:46        0.37
  Y030306              JUNCTION     0.09     0.92    45.06     1  08:01        0.83
  Y030397              JUNCTION     0.27     1.88    40.56     1  08:15        1.62
  Y030527              JUNCTION     0.08     0.87    45.07     1  08:01        0.78
  Y030541              JUNCTION     0.33     1.38    44.74     1  08:45        1.35
  Y030542              JUNCTION     0.22     1.36    44.74     1  08:11        1.24
  Y030543              JUNCTION     0.26     1.37    44.24     1  08:23        1.35
  Y030548              JUNCTION     0.27     1.91    44.60     1  08:11        1.86
  Y030582              JUNCTION     0.04     0.11    42.06     1  08:24        0.11
  Y030583              JUNCTION     0.11     0.99    44.93     1  08:01        0.95
  Y030585              JUNCTION     0.14     1.16    44.52     1  08:02        1.16
  Y030587              JUNCTION     0.07     0.85    44.68     1  08:02        0.65
  Y030588              JUNCTION     0.31     1.32    44.70     1  08:22        1.30
  Y030601              JUNCTION     0.07     0.84    44.58     1  08:47        0.69
  Y030640              JUNCTION     0.13     1.23    44.69     1  08:02        0.94
  Y030711              JUNCTION     0.30     1.63    44.92     1  08:11        1.34
  Y030712              JUNCTION     0.19     1.85    45.41     1  08:11        1.16
  Y030713              JUNCTION     0.75     1.83    44.76     1  08:21        1.80
  Y030795              JUNCTION     0.34     1.45    44.14     1  09:55        1.44
  Y030796              JUNCTION     0.06     1.12    45.06     1  08:11        0.62
  Y030797              JUNCTION     0.21     0.78    44.56     1  08:31        0.76
  Y030798              JUNCTION     0.12     1.14    44.56     1  08:02        1.11
  Y030800              JUNCTION     0.11     1.01    44.88     1  08:01        0.98
  Y030801              JUNCTION     0.09     1.35    45.75     1  08:07        0.88
  Y030963              JUNCTION     0.09     1.37    44.91     1  08:29        1.06
  Y030969              JUNCTION     0.21     1.84    45.38     1  08:11        1.18
  Y030971              JUNCTION     0.16     1.11    44.35     1  08:22        1.08
  Y030991              JUNCTION     0.10     0.93    44.25     1  08:46        0.82
  Y031021              JUNCTION     0.09     0.97    44.39     1  08:46        0.83
  Y031068              JUNCTION     0.35     1.54    44.89     1  08:22        1.52
  Y031069              JUNCTION     0.16     1.42    45.36     1  08:07        1.30
  Y031121              JUNCTION     0.13     1.06    43.51     1  08:36        0.83
  Y031141              JUNCTION     0.22     1.70    44.34     1  08:36        1.56
  Y031142              JUNCTION     0.06     0.69    45.09     1  08:01        0.59
  Y031148              JUNCTION     0.17     1.12    44.38     1  08:22        1.07
  Y031149              JUNCTION     0.16     1.23    44.41     1  08:21        1.22
  Y031152              JUNCTION     0.28     1.32    43.89     1  08:49        1.30
  Y031230              JUNCTION     0.17     1.59    45.06     1  08:29        1.16
  Y031236              JUNCTION     0.23     1.07    44.52     1  08:06        1.07
  Y031393              JUNCTION     0.10     1.30    44.91     1  08:11        1.05
  Y031395              JUNCTION     0.17     1.13    44.88     1  08:21        1.11
  Y031417              JUNCTION     0.12     0.82    44.56     1  08:23        0.80
  Y031418              JUNCTION     0.51     1.67    45.19     1  09:05        1.66
  Y031419              JUNCTION     0.28     2.55    41.64     1  08:46        2.24
  Y031420              JUNCTION     0.17     1.33    45.17     1  08:44        1.32
  Y031421              JUNCTION     0.17     1.48    44.89     1  08:11        1.23
  Y031535              JUNCTION     0.09     1.28    45.71     1  08:07        0.86
  Y031537              JUNCTION     0.16     1.36    45.29     1  08:07        1.31
  Y031544              JUNCTION     0.07     0.80    45.08     1  08:01        0.71
  Y031581              JUNCTION     0.16     1.15    44.36     1  08:45        1.14
  Y031582              JUNCTION     0.42     1.42    44.59     1  08:11        1.42
  Y031583              JUNCTION     0.22     2.58    42.01     1  08:15        2.21
  Y031584              JUNCTION     0.07     1.38    45.95     1  08:07        0.74
  Y031610              JUNCTION     0.24     1.80    40.40     1  08:15        1.21
  Y031614              JUNCTION     0.24     1.59    45.51     1  08:16        1.57
  Y031730              JUNCTION     0.01     0.33    44.63     1  08:29        0.13
  Y031737              JUNCTION     0.15     1.37    44.82     1  08:11        1.18
  Y031826              JUNCTION     0.16     1.50    45.51     1  08:28        1.48
  Y031827              JUNCTION     0.12     1.02    44.31     1  08:46        0.90
  Y031829              JUNCTION     0.35     1.35    44.89     1  08:22        1.33
  Y031830              JUNCTION     0.14     1.15    43.68     1  08:36        0.94
  Y031892              JUNCTION     0.18     1.50    44.91     1  08:11        1.23
  Y031893              JUNCTION     0.24     1.40    45.19     1  09:17        1.39
  Y031898              JUNCTION     0.04     0.73    44.59     1  08:44        0.56
  Y031903              JUNCTION     0.40     1.43    44.72     1  08:21        1.41
  Y031999              JUNCTION     0.35     1.44    44.11     1  08:21        1.43
  Y032107              JUNCTION     0.33     2.48    41.30     1  08:46        2.19
  Y032134              JUNCTION     0.29     2.61    41.74     1  08:46        2.30
  Y032136              JUNCTION     0.28     0.85    44.56     1  08:34        0.84
  Y032230              JUNCTION     0.06     0.84    44.46     1  08:46        0.69
  Y032232              JUNCTION     0.04     0.73    44.59     1  08:29        0.58
  Y032273              JUNCTION     0.09     0.66    44.56     1  08:39        0.65
  Y032275              JUNCTION     0.15     1.15    44.39     1  08:02        1.12
  Y032276              JUNCTION     0.21     1.14    44.44     1  08:07        1.14
  Y032277              JUNCTION     0.25     1.53    44.87     1  08:11        1.29
  Y032283              JUNCTION     0.03     0.96    45.09     1  08:29        0.50
  Y032285              JUNCTION     0.09     1.09    44.76     1  08:02        0.74
  Y032311              JUNCTION     0.33     1.46    44.15     1  09:15        1.43
  Y032312              JUNCTION     0.20     1.72    44.41     1  08:36        1.60
  Y032313              JUNCTION     0.35     1.48    44.83     1  08:23        1.46
  Y032314              JUNCTION     0.09     0.78    44.74     1  08:14        0.76
  Y032315              JUNCTION     0.08     0.76    44.79     1  08:24        0.73
  Y032357              JUNCTION     0.30     2.55    41.44     1  08:46        2.24
  Y032358              JUNCTION     0.38     1.71    45.50     1  08:14        1.71
  Y032363              JUNCTION     0.33     1.66    45.37     1  08:43        1.64
  Y032374              JUNCTION     0.52     1.90    45.52     1  08:55        1.88
  Y032375              JUNCTION     0.21     1.56    45.52     1  08:17        1.53
  Y032607              JUNCTION     0.16     0.94    39.47     1  08:37        0.79
  Y032608              JUNCTION     0.13     1.17    44.62     1  08:02        0.95
  Y032611              JUNCTION     0.18     2.56    42.21     1  08:15        2.05
  Y032701              JUNCTION     0.08     1.04    44.68     1  08:02        0.92
  Y032719              JUNCTION     0.27     2.53    41.55     1  08:46        2.22
  Y032731              JUNCTION     0.18     1.37    43.96     1  08:36        1.18
  Y032741              JUNCTION     0.22     1.77    44.46     1  08:36        1.66
  Y032747              JUNCTION     0.21     1.55    44.89     1  08:29        1.24
  Y032760              JUNCTION     0.13     1.09    44.87     1  08:23        1.07
  Y032829              JUNCTION     0.05     1.00    44.90     1  08:29        0.69
  Y032839              JUNCTION     0.30     1.65    45.51     1  08:20        1.63
  Y032897              JUNCTION     0.28     1.06    44.58     1  08:29        0.92
  Y032936              JUNCTION     0.17     1.24    44.67     1  08:11        1.18
  Y032937              JUNCTION     0.21     1.40    44.31     1  08:49        1.39
  Y032938              JUNCTION     0.18     1.61    44.58     1  08:11        1.61
  Y033129              JUNCTION     0.05     0.66    44.44     1  08:04        0.57
  Y033131              JUNCTION     0.19     1.27    44.35     1  08:32        1.26
  Y033133              JUNCTION     0.63     1.96    44.92     1  08:11        1.69
  Y033153              JUNCTION     0.19     1.28    44.78     1  08:20        1.25
  Y033202              JUNCTION     0.24     1.18    44.55     1  08:01        1.18
  Y033204              JUNCTION     0.20     1.57    44.19     1  08:36        1.39
  Y033275              JUNCTION     0.07     0.71    44.68     1  08:11        0.60
  Y033307              JUNCTION     0.01     0.44    44.60     1  08:29        0.27
  Y033332              JUNCTION     0.04     0.60    44.67     1  08:21        0.43
  Y033333              JUNCTION     0.29     1.23    43.66     1  08:48        1.21
  Y033338              JUNCTION     0.05     1.35    45.13     1  08:25        0.84
  Y033431              JUNCTION     0.09     0.99    45.04     1  08:01        0.90
  Y033479              JUNCTION     0.11     1.13    44.55     1  08:29        0.96
  Y033523              JUNCTION     0.32     1.72    45.45     1  08:45        1.69
  Y033526              JUNCTION     0.07     1.06    42.20     1  08:46        0.76
  Y033528              JUNCTION     0.08     0.73    44.69     1  08:18        0.71
  Y033578              JUNCTION     0.05     1.33    45.04     1  08:29        0.91
  Y033580              JUNCTION     0.26     1.02    44.14     1  08:46        0.90
  Y033666              JUNCTION     0.23     1.31    44.77     1  08:19        1.29
  Y033681              JUNCTION     0.09     0.83    44.77     1  08:20        0.81
  Y033682              JUNCTION     0.32     1.62    44.89     1  08:11        1.38
  Y033683              JUNCTION     0.09     0.82    44.79     1  08:14        0.81
  Y033721              JUNCTION     0.07     0.98    44.90     1  08:29        0.70
  Y033724              JUNCTION     0.14     1.04    44.35     1  08:46        0.91
  Y033743              JUNCTION     0.12     1.72    45.17     1  08:11        1.25
  Y033768              JUNCTION     0.09     0.89    44.53     1  08:02        0.78
  Y033772              JUNCTION     0.17     1.31    45.18     1  08:07        1.31
  Y033773              JUNCTION     0.07     0.66    42.83     1  08:36        0.37
  Y033777              JUNCTION     0.23     1.32    44.78     1  08:23        1.28
  Y033912              JUNCTION     0.13     1.11    44.87     1  08:23        1.08
  Y033913              JUNCTION     0.16     1.16    44.51     1  08:02        1.04
  Y033936              JUNCTION     0.16     1.72    45.11     1  08:11        1.29
  Y033937              JUNCTION     0.15     1.30    42.43     1  08:47        1.00
  Y033938              JUNCTION     0.24     1.20    44.65     1  08:08        1.20
  Y034019              JUNCTION     0.11     0.95    44.36     1  08:10        0.94
  Y034022              JUNCTION     0.21     0.77    44.55     1  08:06        0.77
  Y034023              JUNCTION     0.34     1.32    44.66     1  08:08        1.32
  Y034024              JUNCTION     0.21     1.18    44.34     1  08:09        1.18
  Y034233              JUNCTION     0.13     1.16    44.50     1  08:19        1.14
  Y034253              JUNCTION     0.04     0.59    44.87     1  08:20        0.46
  Y034256              JUNCTION     0.32     1.45    44.17     1  08:02        1.45
  Y034312              JUNCTION     0.12     0.85    43.15     1  08:45        0.61
  Y034314              JUNCTION     0.24     2.54    41.87     1  08:47        2.23
  Y034349              JUNCTION     0.12     1.17    44.58     1  08:29        0.98
  Y034351              JUNCTION     0.12     1.08    44.37     1  08:29        0.94
  Y034355              JUNCTION     0.04     0.71    44.47     1  08:47        0.55
  Y034363              JUNCTION     0.07     0.89    44.56     1  08:46        0.72
  Y034403              JUNCTION     0.19     1.05    44.29     1  08:46        0.93
  Y034437              JUNCTION     0.37     1.48    44.01     1  08:43        1.46
  Y034542              JUNCTION     0.28     1.03    44.78     1  08:22        1.00
  Y034559              JUNCTION     0.27     1.64    45.12     1  08:45        1.62
  Y034560              JUNCTION     0.11     1.10    44.61     1  08:02        1.06
  Y034571              JUNCTION     0.16     1.44    45.38     1  08:07        1.30
  Y034572              JUNCTION     0.14     1.17    43.72     1  08:36        0.95
  Y034573              JUNCTION     0.15     1.08    44.37     1  08:39        1.06
  Y034683              JUNCTION     0.22     1.23    44.35     1  08:22        1.20
  Y034774              JUNCTION     0.09     1.73    45.39     1  08:11        1.06
  Y034775              JUNCTION     0.11     1.03    45.01     1  08:01        0.95
  Y034776              JUNCTION     0.26     1.54    45.00     1  08:45        1.52
  Y034972              JUNCTION     0.15     1.44    44.83     1  08:11        1.26
  Y034985              JUNCTION     0.34     1.70    45.51     1  08:43        1.68
  Y035031              JUNCTION     0.10     0.75    44.57     1  08:11        0.75
  Y035036              JUNCTION     0.07     1.26    45.12     1  08:11        0.69
  Y035038              JUNCTION     0.13     0.97    43.34     1  08:45        0.74
  Y035039              JUNCTION     0.17     1.12    44.40     1  08:02        1.07
  Y035073              JUNCTION     0.34     1.71    45.52     1  08:20        1.70
  Y035146              JUNCTION     0.25     1.91    44.60     1  08:11        1.81
  Y035147              JUNCTION     0.22     1.32    44.70     1  08:11        1.24
  Y035148              JUNCTION     0.18     1.21    44.36     1  08:39        1.19
  Y035152              JUNCTION     0.13     1.78    45.40     1  08:11        1.10
  Y035360              JUNCTION     0.31     1.05    44.12     1  08:47        0.95
  Y035470              JUNCTION     0.21     1.57    45.00     1  08:29        1.19
  Y035552              JUNCTION     0.19     1.39    45.17     1  08:23        1.37
  Y035645              JUNCTION     0.21     0.78    44.56     1  08:06        0.77
  Y035646              JUNCTION     0.13     1.04    44.35     1  08:11        1.04
  Y035677              JUNCTION     0.08     0.24    42.61     1  08:24        0.24
  Y035678              JUNCTION     0.20     1.64    44.28     1  08:36        1.48
  Y035684              JUNCTION     0.28     1.60    44.87     1  08:29        1.29
  Y035686              JUNCTION     0.04     1.02    44.95     1  08:29        0.69
  Y035691              JUNCTION     0.12     1.74    45.38     1  08:11        1.07
  Y035711              JUNCTION     0.09     0.96    44.31     1  08:46        0.83
  Y036038              JUNCTION     0.30     1.50    44.80     1  08:11        1.33
  Y036039              JUNCTION     0.26     1.32    44.66     1  08:11        1.24
  Y036040              JUNCTION     0.28     1.39    44.72     1  08:11        1.28
  Y036042              JUNCTION     0.26     1.91    44.60     1  08:11        1.83
  Y036418              JUNCTION     0.23     1.02    44.59     1  08:29        0.86
  Y036715              JUNCTION     0.04     0.28    42.17     1  08:47        0.23
  Y036716              JUNCTION     0.00     0.05    42.12     1  08:47        0.04
  Y036764              JUNCTION     0.19     1.05    44.56     1  08:12        1.03
  Y036765              JUNCTION     0.19     1.05    44.56     1  08:32        1.04
  Y036766              JUNCTION     0.20     1.08    44.56     1  08:46        1.06
  Y036767              JUNCTION     0.21     1.08    44.55     1  08:23        1.06
  Y036855              JUNCTION     0.09     1.54    45.06     1  08:29        1.09
  Y036856              JUNCTION     0.09     1.56    45.02     1  08:29        1.15
  Y036857              JUNCTION     0.09     1.59    45.00     1  08:29        1.19
  Y036858              JUNCTION     0.14     1.90    44.93     1  08:29        1.52
  Y036859              JUNCTION     0.15     1.89    44.91     1  08:29        1.52
  Y036860              JUNCTION     0.12     1.80    44.81     1  08:29        1.45
  Y036861              JUNCTION     0.13     1.82    44.79     1  08:29        1.47
  Y036863              JUNCTION     0.14     1.77    44.68     1  08:29        1.45
  Y036864              JUNCTION     0.13     1.70    44.59     1  08:29        1.38
  Y036865              JUNCTION     0.12     1.63    44.44     1  08:29        1.33
  Y036866              JUNCTION     0.14     1.62    44.27     1  08:29        1.34
  Y036867              JUNCTION     0.14     1.47    44.08     1  08:29        1.20
  Y036868              JUNCTION     0.11     1.38    43.98     1  08:29        1.13
  Y036869              JUNCTION     0.12     1.29    43.71     1  08:29        1.09
  Y036870              JUNCTION     0.14     1.17    43.46     1  08:29        1.01
  Y036871              JUNCTION     0.14     0.98    43.22     1  08:29        0.85
  Y036872              JUNCTION     0.10     0.59    42.81     1  08:30        0.50
  Y036874              JUNCTION     0.09     0.49    42.70     1  09:01        0.42
  Y036875              JUNCTION     0.07     0.38    42.57     1  08:45        0.37
  Y036876              JUNCTION     0.03     0.17    41.77     1  08:47        0.16
  Y036884              JUNCTION     0.03     0.85    45.23     1  08:25        0.43
  Y036885              JUNCTION     0.03     1.09    45.10     1  08:29        0.62
  Y036886              JUNCTION     0.06     1.36    45.09     1  08:29        0.89
  Y037059              JUNCTION     0.29     1.36    43.95     1  08:20        1.34
  Y037060              JUNCTION     0.23     1.58    44.90     1  08:29        1.25
  Y037061              JUNCTION     0.09     1.14    44.58     1  08:29        0.95
  Y037062              JUNCTION     0.18     1.53    44.90     1  08:29        1.20
  Y037063              JUNCTION     0.22     1.27    44.58     1  08:29        1.08
  Y037064              JUNCTION     0.03     0.44    44.74     1  08:20        0.44
  Y037065              JUNCTION     0.30     1.61    44.25     1  08:47        1.59
  Y037066              JUNCTION     0.27     1.58    44.30     1  08:13        1.57
  Y037067              JUNCTION     0.35     1.54    44.10     1  08:24        1.52
  Y037068              JUNCTION     0.38     1.52    44.05     1  08:16        1.50
  Y037069              JUNCTION     0.24     1.52    44.32     1  08:13        1.52
  Y037070              JUNCTION     0.24     1.52    44.35     1  08:13        1.52
  Y037071              JUNCTION     0.21     1.45    44.38     1  08:13        1.45
  Y037072              JUNCTION     0.30     1.53    44.14     1  08:46        1.51
  Y037073              JUNCTION     0.29     1.61    44.27     1  08:19        1.59
  Y037166              JUNCTION     0.12     1.43    44.20     1  08:36        1.24
  Y037249              JUNCTION     0.18     1.17    44.88     1  08:22        1.14
  Y037549              JUNCTION     0.27     0.97    44.81     1  08:21        0.93
  Y037550              JUNCTION     0.23     0.93    44.81     1  08:21        0.88
  YF_00530             JUNCTION     0.05     1.15    45.32     1  08:28        0.46
  YF_01035             JUNCTION     0.16     1.13    44.63     1  08:23        1.12
  PSK                  OUTFALL      0.16     0.76    38.75     1  08:47        0.75
  
  
  *******************
  Node Inflow Summary
  *******************
  
  -------------------------------------------------------------------------------------------------
                                  Maximum  Maximum                  Lateral       Total        Flow
                                  Lateral    Total  Time of Max      Inflow      Inflow     Balance
                                   Inflow   Inflow   Occurrence      Volume      Volume       Error
  Node                 Type           CMS      CMS  days hr:min    10^6 ltr    10^6 ltr     Percent
  -------------------------------------------------------------------------------------------------
  Y029640              JUNCTION     0.002    0.023     1  08:20      0.0138       0.172      -0.004
  Y029650              JUNCTION     0.013    0.166     1  08:11      0.0948        2.51       0.000
  Y029652              JUNCTION     0.008    0.047     1  08:06      0.0579       0.365       0.026
  Y029653              JUNCTION     0.014    0.014     1  08:22       0.121       0.121      -0.095
  Y029657              JUNCTION     0.011    0.410     1  08:24      0.0916        5.53       0.001
  Y029885              JUNCTION     0.014    0.055     1  08:11       0.118        0.42       0.000
  Y029887              JUNCTION     0.020    0.427     1  08:47         0.2        4.35      -0.015
  Y029904              JUNCTION     0.014    0.188     1  08:22       0.148        4.41      -0.001
  Y029905              JUNCTION     0.011    0.029     1  09:59      0.0925       0.455       0.155
  Y029942              JUNCTION     0.009    0.009     1  08:22      0.0752      0.0752       0.001
  Y029945              JUNCTION     0.001    0.088     1  07:52     0.00387        0.38       0.205
  Y029946              JUNCTION     0.006    0.149     1  08:12      0.0448        2.54       0.007
  Y029947              JUNCTION     0.023    0.475     1  08:24       0.216        6.17       0.001
  Y029949              JUNCTION     0.031    0.031     1  08:47       0.363       0.363      -0.001
  Y029950              JUNCTION     0.013    0.294     1  08:18       0.129        4.49       0.001
  Y029959              JUNCTION     0.013    0.090     1  08:49       0.131       0.999       0.000
  Y029961              JUNCTION     0.016    1.276     1  08:47       0.146        18.4       0.001
  Y029962              JUNCTION     0.010    0.117     1  08:23      0.0814       0.137       0.007
  Y029963              JUNCTION     0.029    0.049     1  09:23       0.329       0.603       0.120
  Y030009              JUNCTION     0.003    0.028     1  08:22      0.0152      0.0946       0.003
  Y030023              JUNCTION     0.018    0.029     1  08:23       0.187        0.26       0.002
  Y030024              JUNCTION     0.010    0.180     1  08:47      0.0839        1.92       0.028
  Y030078              JUNCTION     0.010    0.171     1  08:46      0.0797        1.83       0.102
  Y030099              JUNCTION     0.013    0.013     1  08:22       0.107       0.107      -0.006
  Y030124              JUNCTION     0.005    0.059     1  09:23      0.0326       0.731       0.540
  Y030134              JUNCTION     0.014    0.087     1  08:22       0.122       0.683       0.000
  Y030135              JUNCTION     0.020    0.145     1  08:09       0.194        2.35      -0.003
  Y030179              JUNCTION     0.009    0.049     1  08:22      0.0697       0.229      -0.004
  Y030217              JUNCTION     0.029    0.456     1  08:47       0.316        4.66       0.002
  Y030306              JUNCTION     0.004    0.041     1  08:22      0.0263       0.382      -0.001
  Y030397              JUNCTION     0.006    1.681     1  08:47      0.0452        22.5       0.001
  Y030527              JUNCTION     0.011    0.037     1  08:22      0.0881       0.356      -0.001
  Y030541              JUNCTION     0.010    0.115     1  08:22      0.0908        1.21       0.052
  Y030542              JUNCTION     0.007    0.028     1  08:20      0.0615        0.17       0.139
  Y030543              JUNCTION     0.009    0.223     1  08:21      0.0744        4.33      -0.000
  Y030548              JUNCTION     0.008    0.156     1  07:41      0.0653         2.6       0.037
  Y030582              JUNCTION     0.006    0.289     1  08:24      0.0523        6.83       0.000
  Y030583              JUNCTION     0.010    0.062     1  08:22        0.08       0.545       0.000
  Y030585              JUNCTION     0.008    0.053     1  08:22      0.0664       0.465       0.001
  Y030587              JUNCTION     0.006    0.021     1  08:21      0.0491       0.173       0.001
  Y030588              JUNCTION     0.009    0.137     1  08:22      0.0721        1.26       0.032
  Y030601              JUNCTION     0.017    0.034     1  08:13       0.182        0.38       0.003
  Y030640              JUNCTION     0.005    0.028     1  08:21      0.0331       0.205       0.004
  Y030711              JUNCTION     0.004    0.088     1  08:02      0.0276        1.11      -0.049
  Y030712              JUNCTION     0.022    0.035     1  08:21        0.18       0.283       0.247
  Y030713              JUNCTION     0.007    0.105     1  08:22      0.0582        1.18       0.274
  Y030795              JUNCTION     0.006    0.166     1  09:55      0.0511        4.19       0.001
  Y030796              JUNCTION     0.014    0.063     1  08:11        0.13       0.524      -0.001
  Y030797              JUNCTION     0.006    0.023     1  08:22      0.0478       0.108       0.425
  Y030798              JUNCTION     0.011    0.044     1  08:22      0.0998       0.398       0.002
  Y030800              JUNCTION     0.004    0.031     1  08:02      0.0271       0.466      -0.008
  Y030801              JUNCTION     0.007    0.062     1  08:07        0.05        0.36      -0.011
  Y030963              JUNCTION     0.013    0.110     1  08:47       0.106        1.12      -0.014
  Y030969              JUNCTION     0.013    0.013     1  08:22       0.103       0.103       0.308
  Y030971              JUNCTION     0.015    0.015     1  08:47       0.155       0.155      -0.013
  Y030991              JUNCTION     0.013    0.123     1  08:46       0.102        1.31      -0.009
  Y031021              JUNCTION     0.010    0.099     1  08:49      0.0926        1.09       0.001
  Y031068              JUNCTION     0.010    0.193     1  08:56      0.0936        3.19       0.026
  Y031069              JUNCTION     0.007    0.056     1  08:23      0.0704       0.568       0.006
  Y031121              JUNCTION     0.012    0.322     1  08:21       0.101        4.72       0.001
  Y031141              JUNCTION     0.013    0.243     1  08:11       0.117        3.87       0.001
  Y031142              JUNCTION     0.022    0.022     1  08:47       0.237       0.237      -0.001
  Y031148              JUNCTION     0.006    0.086     1  08:21       0.045       0.699      -0.003
  Y031149              JUNCTION     0.011    0.062     1  08:22       0.092       0.638      -0.001
  Y031152              JUNCTION     0.016    0.250     1  08:09       0.153        6.36      -0.000
  Y031230              JUNCTION     0.006    0.250     1  10:04      0.0385       0.987      -1.587
  Y031236              JUNCTION     0.003    0.159     1  08:20       0.019        1.52       0.003
  Y031393              JUNCTION     0.006    0.021     1  08:21      0.0427       0.164       0.175
  Y031395              JUNCTION     0.007    0.033     1  08:02      0.0498       0.516       0.009
  Y031417              JUNCTION     0.006    0.024     1  09:32      0.0459        0.32       0.016
  Y031418              JUNCTION     0.011    0.146     1  08:22       0.107        1.77       0.162
  Y031419              JUNCTION     0.012    0.779     1  08:23         0.1        13.1       0.001
  Y031420              JUNCTION     0.008    0.129     1  08:09      0.0629        2.05      -0.000
  Y031421              JUNCTION     0.009    0.093     1  08:02        0.07        1.18       0.008
  Y031535              JUNCTION     0.009    0.071     1  08:07      0.0726       0.309      -0.001
  Y031537              JUNCTION     0.013    0.069     1  08:47       0.145       0.712      -0.001
  Y031544              JUNCTION     0.005    0.026     1  08:46      0.0306       0.268       0.002
  Y031581              JUNCTION     0.007    0.056     1  09:42      0.0505       0.842      -0.004
  Y031582              JUNCTION     0.003    0.041     1  08:21      0.0172       0.138       0.492
  Y031583              JUNCTION     0.020    0.430     1  08:24       0.205        5.74       0.001
  Y031584              JUNCTION     0.022    0.045     1  08:07       0.235       0.236       0.004
  Y031610              JUNCTION     0.015    1.695     1  08:47       0.137        22.6       0.001
  Y031614              JUNCTION     0.012    0.077     1  09:23       0.125       0.979       0.118
  Y031730              JUNCTION     0.004    0.012     1  08:29      0.0253      0.0254      -0.025
  Y031737              JUNCTION     0.010    0.021     1  08:21       0.078        0.19      -0.060
  Y031826              JUNCTION     0.017    0.095     1  09:23       0.146        1.21       0.004
  Y031827              JUNCTION     0.014    0.272     1  08:47       0.147        2.73      -0.004
  Y031829              JUNCTION     0.023    0.023     1  08:47       0.245       0.246       0.237
  Y031830              JUNCTION     0.010    0.310     1  08:18      0.0763        4.62       0.001
  Y031892              JUNCTION     0.004    0.089     1  08:02      0.0257        1.11      -0.006
  Y031893              JUNCTION     0.012    0.126     1  09:52      0.0953        1.99       0.034
  Y031898              JUNCTION     0.009    0.041     1  08:22      0.0794       0.159       0.013
  Y031903              JUNCTION     0.012    0.127     1  08:22      0.0969        1.25       0.057
  Y031999              JUNCTION     0.008    0.174     1  08:22      0.0714        4.26       0.003
  Y032107              JUNCTION     0.004    1.261     1  08:47       0.023        18.3       0.002
  Y032134              JUNCTION     0.004    0.768     1  08:23      0.0313          13       0.001
  Y032136              JUNCTION     0.014    0.017     1  08:23       0.146       0.182       0.386
  Y032230              JUNCTION     0.009    0.033     1  08:24       0.074       0.317      -0.002
  Y032232              JUNCTION     0.009    0.021     1  08:23      0.0728       0.119       0.008
  Y032273              JUNCTION     0.015    0.021     1  09:32       0.149       0.278      -0.035
  Y032275              JUNCTION     0.014    0.044     1  08:47       0.122       0.485       0.000
  Y032276              JUNCTION     0.015    0.162     1  08:24       0.136        3.57      -0.001
  Y032277              JUNCTION     0.011    0.026     1  08:11       0.086       0.216       0.121
  Y032283              JUNCTION     0.003    0.042     1  08:28      0.0256       0.423       0.005
  Y032285              JUNCTION     0.007    0.020     1  08:21      0.0501       0.157       0.005
  Y032311              JUNCTION     0.010    0.164     1  10:06      0.0776        4.14       0.001
  Y032312              JUNCTION     0.014    0.234     1  08:11       0.125        3.75       0.000
  Y032313              JUNCTION     0.002    0.194     1  08:53       0.013         3.2       0.007
  Y032314              JUNCTION     0.007    0.022     1  08:21      0.0505       0.211       0.002
  Y032315              JUNCTION     0.012    0.040     1  08:22       0.105       0.376       0.004
  Y032357              JUNCTION     0.016    0.810     1  08:23       0.143        13.4       0.001
  Y032358              JUNCTION     0.028    0.035     1  08:47       0.363       0.372       0.453
  Y032363              JUNCTION     0.021    0.135     1  08:21       0.204        1.66       0.068
  Y032374              JUNCTION     0.013    0.057     1  09:23       0.109       0.703       0.961
  Y032375              JUNCTION     0.011    0.084     1  09:23       0.092        1.07       0.026
  Y032607              JUNCTION     0.011    1.705     1  08:47      0.0931        22.7       0.001
  Y032608              JUNCTION     0.007    0.062     1  08:21      0.0582        0.48      -0.003
  Y032611              JUNCTION     0.006    0.400     1  08:16      0.0548        5.44      -0.001
  Y032701              JUNCTION     0.015    0.017     1  08:02       0.134       0.134      -0.006
  Y032719              JUNCTION     0.016    0.795     1  08:23        0.14        13.3       0.000
  Y032731              JUNCTION     0.020    0.281     1  08:17       0.189        4.36       0.001
  Y032741              JUNCTION     0.017    0.225     1  08:11       0.168        3.63      -0.006
  Y032747              JUNCTION     0.007    0.154     1  08:46      0.0615        1.69       0.059
  Y032760              JUNCTION     0.003    0.035     1  08:02      0.0182       0.534       0.001
  Y032829              JUNCTION     0.006    0.046     1  08:23       0.043         0.4      -0.001
  Y032839              JUNCTION     0.010    0.068     1  09:23      0.0951       0.854       0.269
  Y032897              JUNCTION     0.011    0.023     1  08:13       0.107       0.204       0.555
  Y032936              JUNCTION     0.005    0.039     1  08:20      0.0361       0.149       0.046
  Y032937              JUNCTION     0.012    0.114     1  07:44       0.116        1.18       0.009
  Y032938              JUNCTION     0.013    0.178     1  08:22       0.103        2.61       0.030
  Y033129              JUNCTION     0.006    0.027     1  08:02      0.0428      0.0446      -0.045
  Y033131              JUNCTION     0.021    0.072     1  09:41       0.249        1.06      -0.001
  Y033133              JUNCTION     0.003    0.071     1  08:02      0.0181       0.918       0.326
  Y033153              JUNCTION     0.012    0.060     1  08:20       0.117       0.984       0.007
  Y033202              JUNCTION     0.005    0.121     1  08:21      0.0354        1.28       0.009
  Y033204              JUNCTION     0.009    0.267     1  08:13      0.0721        4.19      -0.009
  Y033275              JUNCTION     0.006    0.044     1  08:06      0.0366       0.367      -0.000
  Y033307              JUNCTION     0.004    0.032     1  08:22      0.0302      0.0911      -0.024
  Y033332              JUNCTION     0.006    0.015     1  08:21      0.0482       0.123       0.001
  Y033333              JUNCTION     0.029    0.271     1  08:45       0.302        6.66       0.001
  Y033338              JUNCTION     0.025    0.130     1  08:22       0.256       0.372       0.014
  Y033431              JUNCTION     0.004    0.045     1  08:22      0.0288       0.411       0.000
  Y033479              JUNCTION     0.007    0.246     1  08:46      0.0612        2.46       0.002
  Y033523              JUNCTION     0.025    0.115     1  08:18       0.252        1.46       0.049
  Y033526              JUNCTION     0.009    0.393     1  08:24      0.0753        5.38      -0.000
  Y033528              JUNCTION     0.004    0.024     1  08:20      0.0258       0.237       0.001
  Y033578              JUNCTION     0.014    0.175     1  08:13       0.114       0.545       0.023
  Y033580              JUNCTION     0.007    0.278     1  08:47       0.055         3.5      -0.042
  Y033666              JUNCTION     0.004    0.246     1  08:22      0.0247        4.11       0.009
  Y033681              JUNCTION     0.002    0.048     1  08:21      0.0135       0.429      -0.001
  Y033682              JUNCTION     0.005    0.070     1  08:02      0.0341       0.995       0.154
  Y033683              JUNCTION     0.018    0.018     1  08:22       0.166       0.166       0.001
  Y033721              JUNCTION     0.012    0.041     1  08:23       0.105       0.357      -0.006
[...]
  Cond1659                    1.52      1.52      1.64      0.19         0.26
  Cond1660                    1.44      1.44      1.87      0.01         0.01
  Cond1662                    1.67      1.78      1.67      2.47         1.67
  Cond1663                    0.79      0.79      0.90      0.01         0.01
  Cond1664                    2.87      2.87      6.02      0.01         0.01
  Cond1673                    0.49      0.49      0.87      0.01         0.01
  Cond1678                    1.13      1.13      1.30      0.07         0.07
  Cond1679                    1.45      1.45      1.64      2.16         0.01
  Cond1704                    1.64      1.64      2.51      0.01         0.01
  Cond1715                    2.85      2.85      2.96      0.01         0.01
  Cond1728                    3.24      3.24      6.02      0.01         0.01
  Cond1734                    2.73      2.73      3.58      0.01         0.01
  Cond1735                    4.82      4.82      4.96      0.01         0.01
  Cond1743                    1.22      1.22      2.14      0.01         0.01
  Cond1795                    2.54      2.54      2.62      0.01         0.01
  Cond1836                    1.43      1.67      1.43      3.02         1.43
  Cond1857                    2.49      2.49      2.54      0.01         0.01
  Cond1866                    5.17      5.17     65.87      0.01         0.01
  Cond1867                    3.40      3.40      5.59      0.01         0.01
  Cond1868                    5.58      5.58      5.74      0.01         0.01
  Cond1870                    3.15      3.22      3.15      8.28         3.10
  Cond1893                    0.01      0.01      1.95      0.01         0.01
  Cond1894                    2.70      2.70      2.73      1.00         0.94
  Cond1896                    3.15      3.15      3.20      1.28         1.35
  Cond1898                    2.89      2.89      3.31      0.01         0.01
  Cond1899                    5.12      5.12      5.35      0.01         0.01
  Cond1908                    1.38      1.38      5.89      0.01         0.01
  Cond1925                    3.20      3.20      3.24      0.01         0.44
  Cond1958                    3.42      3.42      7.31      0.15         0.01
  Cond1959                    1.66      1.66      1.78      0.01         0.01
  Cond1960                    4.85      4.85     65.87      0.01         0.01
  Cond1992                    5.76      5.76      5.77      2.54         2.46
  Cond1993                    1.58      1.59      1.58      0.86         0.09
  Cond1994                    3.19      3.19      3.63      0.01         0.01
  Cond1995                    3.03      3.03      3.15      0.01         0.01
  Cond1997                    2.76      2.76      2.96      0.01         0.01
  Cond1998                    2.63      2.63      3.42      0.01         0.01
  Cond2065                    1.36      1.36      1.93      0.01         0.01
  Cond2072                    1.78      1.78      1.82      0.01         0.03
  Cond2073                    5.02      5.02      5.39      0.01         0.01
  Cond2079                    1.95      1.95      5.53      0.01         0.01
  Cond2093                    1.64      1.64      2.10      0.01         0.01
  Cond2113                    5.20      5.22      5.20      9.21         5.15
  Cond2114                    2.87      2.87      2.88      0.01         0.86
  Cond2132                    1.41      1.69      1.41      2.65         1.41
  Cond2141                    2.87      2.95      2.87      8.91         2.87
  Cond2142                    2.32      2.32      2.42      0.01         0.01
  Cond2144                    4.94      4.94      5.39      0.01         0.01
  Cond2145                    3.57      3.57      5.43      0.01         0.01
  Cond2148                    5.72      5.72      5.88      5.20         5.20
  Cond2172                    1.53      1.54      1.62      0.01         0.01
  Cond2179                    5.63      5.67      5.63      8.42         2.64
  Cond2212                    2.72      2.72      7.72      0.01         0.01
  Cond2214                    2.88      2.88      2.96      0.01         0.01
  Cond2227                    3.40      3.40      4.78      0.01         0.01
  Cond2228                    2.89      2.89      4.99      0.01         0.01
  Cond2229                    1.91      1.91      1.96      1.30         1.31
  Cond2230                    3.04      3.04      3.19      0.01         0.01
  Cond2231                    2.55      3.11      2.55      5.65         1.48
  Cond2288                    2.56      2.56      2.63      0.01         0.05
  Cond2290                    3.10      3.10      3.80      0.01         0.01
  Cond2294                    2.41      2.41      2.49      0.01         0.01
  Cond2295                    3.45      3.45      3.99      0.01         0.01
  Cond2296                    3.49      3.49     15.00      0.01         0.01
  Cond2297                    1.74      1.74      1.83      0.01         0.03
  Cond2298                    2.28      2.28      2.56      0.01         0.01
  Cond2318                    0.30      1.43      0.30      3.21         0.30
  Cond2321                    2.83      2.83      2.86      0.01         0.01
  Cond2351                    0.01      0.01      0.87      0.01         0.01
  Cond2358                    3.40      3.40      6.35      0.01         0.01
  Cond2392                    2.98      2.98      4.19      0.01         0.01
  Cond2393                    1.61      1.61      2.48      0.39         0.35
  Cond2396                    3.01      3.01      6.80      0.01         0.01
  Cond2397                    1.69      1.87      1.69      2.63         1.69
  Cond2441                    3.11      3.42      3.11      8.58         2.40
  Cond2442                    3.04      3.04      3.20      0.01         0.01
  Cond2447                    1.10      1.10      1.22      0.01         0.01
  Cond2452                    5.17      5.17      5.35      0.01         0.01
  Cond2491                    5.78      5.78      6.03      4.89         0.01
  Cond2533                    1.78      2.22      1.78      6.11         1.78
  Cond2542                    1.91      1.95      1.91      2.78         1.91
  Cond2544                    2.91      2.91      3.63      0.01         0.01
  Cond2586                    1.27      1.27      1.52      0.01         0.01
  Cond2588                    0.87      0.87      1.26      0.01         0.01
  Cond2593                    2.91      2.91      3.40      0.01         0.01
  Cond2595                    3.25      3.25      3.45      0.01         0.02
  Cond2596                    5.17      5.17      5.39      0.01         0.01
  Cond2597                    6.35      6.35      7.31      0.01         0.01
  Cond2602                    0.51      0.51      1.54      0.01         0.01
  Cond2604                    2.96      2.96      2.98      0.01         0.47
  Cond2611                    5.75      5.75      5.76      5.38         4.17
  Cond2612                    2.92      2.92      2.95      2.72         2.70
  Cond2613                    5.17      5.17      5.70      0.01         0.01
  Cond2614                    3.24      3.24      3.26      2.81         2.50
  Cond2615                    2.74      2.74      3.31      0.01         0.01
  Cond2627                    2.21      2.21      2.22      2.09         2.06
  Cond2629                    2.87      2.87      3.32      0.01         0.01
  Cond2633                    4.31      4.31     10.41      0.01         0.01
  Cond2635                    6.02      6.02      6.02      2.29         1.69
  Cond2636                    2.98      2.98      3.10      0.01         0.01
  Cond2727                    3.24      3.24      4.02      0.01         0.01
  Cond2730                    1.46      1.46      1.58      0.01         0.01
  Cond2784                    2.78      2.78      2.90      0.01         0.01
  Cond2801                    1.96      1.96      2.21      0.01         0.04
  Cond2807                    2.18      2.61      2.18      4.01         2.18
  Cond2814                    2.92      2.96      2.92      8.70         2.92
  Cond2816                    1.93      1.93      2.23      0.01         0.01
  Cond2826                    2.88      2.88      2.92      0.01         0.11
  Cond2851                    1.17      1.17      4.92      0.01         0.01
  Cond2854                    2.86      2.86      2.98      0.01         0.01
  Cond2869                    1.50      1.50      1.68      0.01         0.01
  Cond2890                    3.49      3.49      5.59      0.01         0.01
  Cond2891                    5.17      5.17      5.63      0.01         0.01
  Cond2892                    2.70      2.71      2.70      7.54         2.39
  Cond2951                    1.90      1.90      2.92      0.01         0.01
  Cond2953                    4.84      4.84      5.47      0.01         0.01
  Cond2954                    7.31      7.31     68.46      0.01         0.01
  Cond2956                    3.60      4.36      3.60      9.94         3.60
  Cond2974                    6.25      6.25      6.69      2.44         1.44
  Cond2976                    2.61      2.80      2.61      3.64         2.61
  Cond3006                    2.84      2.84      2.90      0.01         0.37
  Cond3007                    2.84      2.84      3.50      0.01         0.01
  Cond3016                    0.49      0.49      1.10      0.01         0.01
  Cond3025                    2.14      2.14      2.89      0.01         0.01
  Cond3026                    0.01      6.21      0.01      7.71         0.01
  Cond3031                    0.58      0.58      1.00      0.01         0.01
  Cond3085                    2.62      2.62      2.68      0.01         0.01
  Cond3099                    1.41      1.41      1.66      0.84         0.82
  Cond3126                    4.19      4.19      4.31      2.13         2.18
  Cond3129                    0.99      0.99      1.89      0.01         0.01
  Cond3131                    3.26      3.26      4.21      0.01         0.01
  Cond3148                    1.14      1.14      1.54      0.01         0.01
  Cond3150                    2.48      2.48      2.87      0.01         0.11
  Cond3185                    5.16      5.17      5.17      5.24         5.06
  Cond3189                    2.84      2.84      5.17      0.01         0.01
  Cond3190                    7.72      7.72     68.46      0.01         0.01
  Cond3191                    3.22      3.22      3.24      2.44         2.36
  Cond3202                    1.17      1.17      1.17      0.69         0.59
  Cond3205                    1.88      1.88      2.10      0.01         0.01
  Cond3212                    1.98      1.98      2.18      0.01         0.01
  Cond3233                    3.02      3.02      4.02      0.01         0.01
  Cond3237                    2.89      2.89      3.06      0.01         0.01
  Cond3238                    0.37      0.37      1.21      0.01         0.01
  Cond3242                    4.85      4.85      4.85      0.73         1.63
  Cond3297                    2.92      2.92      4.36      0.01         0.01
  Cond3298                    4.02      4.02      4.84      0.01         0.03
  Cond3315                    2.16      2.18      2.16      7.30         2.11
  Cond3316                    0.99      1.21      0.99      9.81         0.99
  Cond3317                    4.91      4.91      5.22      0.01         0.01
  Cond3359                    2.92      2.92      3.11      0.01         0.01
  Cond3362                    3.18      3.18      3.19      0.76         1.64
  Cond3363                    5.12      5.12      5.22      0.01         0.01
  Cond3364                    3.45      3.45      3.95      0.01         0.01
  Cond3440                    3.20      3.20      4.82      0.01         0.01
  Cond3452                    1.10      1.10      1.13      0.06         0.04
  Cond3455                    5.74      5.74      5.75      5.34         5.20
  Cond3474                    0.37      1.19      0.37      2.68         0.37
  Cond3476                    1.83      1.83      1.83      1.88         1.78
  Cond3495                    1.41      1.41      1.45      0.96         0.01
  Cond3497                    1.61      1.66      1.61      7.37         1.61
  Cond3501                    1.22      1.22      1.43      0.01         0.01
  Cond3505                    1.38      1.38      1.44      0.01         0.01
  Cond3525                    1.96      1.96      2.48      0.01         0.01
  Cond3544                    5.73      5.73      5.94      3.14         0.01
  Cond3577                    2.84      2.84      3.31      0.01         0.01
  Cond3585                    4.96      4.96      4.96      5.06         4.83
  Cond3586                    2.90      2.90      3.03      0.01         0.01
  Cond3596                    2.86      2.86      2.87      0.01         1.06
  Cond3597                    1.87      1.91      1.87      2.59         1.84
  Cond3598                    3.07      3.07      3.11      0.01         0.02
  Cond3628                    5.10      5.10      5.58      0.01         0.01
  Cond3664                    1.57      1.57      1.98      0.01         0.01
  Cond3665                    2.68      2.68      2.70      0.77         0.79
  Cond3666                    4.96      4.96      5.22      0.13         0.52
  Cond3733                    2.12      2.16      2.12      7.81         1.90
  Cond3734                    3.10      3.10      3.10      0.01         1.49
  Cond3745                    4.21      4.21      7.31      0.01         0.01
  Cond3748                    1.58      1.58      1.77      0.01         0.01
  Cond3750                    1.19      1.41      1.19      2.67         1.19
  Cond3751                    4.84      4.84      4.94      0.01         0.27
  Cond3760                    2.98      2.98      3.10      0.01         0.01
  Cond3796                    2.96      3.12      2.96      9.80         2.96
  Cond3797                    5.59      5.59      5.59      1.67         1.35
  Cond3798                    3.99      3.99      4.84      0.01         0.01
  Cond3802                    1.63      1.63      1.66      0.01         0.09
  Cond3897                    0.01      0.01      2.87      1.11         0.01
  Cond3933                    1.36      1.36      1.62      0.01         0.01
  Cond3956                    3.19      3.19      4.82      0.01         0.01
  Cond3986                    3.18      3.18      3.18      0.01         1.57
  Cond3987                    3.07      3.07      3.95      0.01         0.01
  Cond3999                    2.80      2.87      2.80      3.50         2.80
  Cond4005                    2.23      2.23      2.51      0.01         0.01
  Cond4007                    0.90      0.90      1.14      0.01         0.01
  Cond4011                    1.57      1.57      1.63      0.01         0.01
  Cond4023                    1.88      1.88      2.48      0.01         0.01
  Cond4183                    7.22      7.22      7.72      1.66         1.65
  Cond4184                    6.69      6.69      6.90      2.32         1.44
  Cond4185                    6.90      6.90      7.22      2.18         1.56
  Cond4187                    3.12      3.15      3.12      8.36         3.11
  Cond4278                    1.07      1.07      1.50      0.01         0.01
  Cond4336                    0.01      0.01      7.01      0.01         0.01
  Cond4338                    0.01      0.01      7.01      0.01         0.01
  Cond4354                    5.06      5.07      5.06      4.74         3.08
  Cond4355                    5.06      5.06      5.15      0.01         0.01
  Cond4356                    5.15      5.15      5.17      0.01         0.62
  Cond4357                    5.17      5.17      5.21      0.01         0.30
  Cond4417                    1.27      1.27      1.30      0.01         0.01
  Cond4418                    1.30      1.30      1.32      0.01         0.01
  Cond4419                    1.32      1.32      1.45      0.01         0.01
  Cond4420                    1.45      1.45      1.45      0.39         0.67
  Cond4421                    1.45      1.45      1.45      2.41         1.44
  Cond4422                    1.45      1.45      1.46      0.01         0.02
  Cond4423                    1.46      1.46      1.47      1.27         1.23
  Cond4425                    1.46      1.47      1.46      1.78         1.46
  Cond4426                    1.46      1.46      1.47      1.40         1.40
  Cond4427                    1.47      1.47      1.53      0.01         0.08
  Cond4428                    1.51      1.53      1.51      1.77         1.51
  Cond4429                    1.48      1.51      1.48      2.45         1.48
  Cond4430                    1.48      1.48      1.58      1.05         1.04
  Cond4431                    1.58      1.58      1.65      1.35         1.34
  Cond4432                    1.61      1.65      1.61      1.79         1.61
  Cond4433                    0.78      1.61      0.78      3.20         0.78
  Cond4434                    0.01      0.78      0.01      2.47         0.01
  Cond4436                    0.01      0.01      0.01      1.39         0.01
  Cond4438                    0.01      0.01      3.09      0.01         0.01
  Cond4446                    0.95      0.95      1.16      0.01         0.01
  Cond4447                    0.92      0.92      1.20      0.01         0.01
  Cond4448                    1.05      1.05      1.09      0.01         0.01
  Cond4449                    1.09      1.09      1.27      0.01         0.01
  Cond4501                    5.72      5.73      5.72      6.10         5.71
  Cond4502                    1.55      1.55      1.59      0.01         0.01
  Cond4503                    0.59      0.59      0.78      0.01         0.01
  Cond4504                    1.49      1.49      1.59      0.01         0.01
  Cond4505                    0.59      0.59      0.96      0.01         0.01
  Cond4506                    1.08      1.08      1.10      0.45         0.01
  Cond4507                    5.72      5.73      5.76      2.52         2.54
  Cond4508                    5.63      5.63      5.70      0.01         0.02
  Cond4509                    5.87      5.87      5.95      1.68         1.71
  Cond4510                    5.94      5.95      5.94      7.90         5.51
  Cond4511                    5.66      5.66      5.77      0.01         0.01
  Cond4512                    5.61      5.61      5.66      1.14         0.08
  Cond4513                    5.43      5.43      5.61      0.01         0.01
  Cond4514                    5.76      5.76      5.87      0.01         0.11
  Cond4515                    5.70      5.70      5.73      1.33         1.07
  Cond4538                    2.04      2.04      2.60      0.01         0.01
  Cond4566                    2.92      2.92      3.01      0.01         0.01
  Cond4612                    2.94      2.94      3.02      0.01         0.06
  Cond4613                    2.74      2.74      2.94      0.01         0.01
  Cond5001                    0.48      0.48      0.51      0.01         0.01
  Cond5073                    3.60      3.60      6.25      0.01         0.01
  Cond2726                    0.01      0.30      0.01      1.05         0.01
  

  Analysis begun on:  Thu Jun 20 21:42:49 2024
  Analysis ended on:  Thu Jun 20 21:43:17 2024
  Total elapsed time: 00:00:28