
  EPA STORM WATER MANAGEMENT MODEL - VERSION 5.2 (Build 5.2.4)
  PYSWMM TOOLKIT API - VERSION v1.0 (2023-11-27)
  ------------------------------------------------------------

  WARNING 04: minimum elevation drop used for Conduit Cond1870
  WARNING 04: minimum elevation drop used for Conduit Cond2113
  WARNING 04: minimum elevation drop used for Conduit Cond2141
  WARNING 04: minimum elevation drop used for Conduit Cond2179
  WARNING 04: minimum elevation drop used for Conduit Cond2441
  WARNING 04: minimum elevation drop used for Conduit Cond2635
  WARNING 04: minimum elevation drop used for Conduit Cond2814
  WARNING 04: minimum elevation drop used for Conduit Cond2892
  WARNING 04: minimum elevation drop used for Conduit Cond2956
  WARNING 04: minimum elevation drop used for Conduit Cond3242
  WARNING 04: minimum elevation drop used for Conduit Cond3315
  WARNING 04: minimum elevation drop used for Conduit Cond3316
  WARNING 04: minimum elevation drop used for Conduit Cond3362
  WARNING 04: minimum elevation drop used for Conduit Cond3497
  WARNING 04: minimum elevation drop used for Conduit Cond3733
  WARNING 04: minimum elevation drop used for Conduit Cond3734
  WARNING 04: minimum elevation drop used for Conduit Cond3796
  WARNING 04: minimum elevation drop used for Conduit Cond3797
  WARNING 04: minimum elevation drop used for Conduit Cond3986
  WARNING 04: minimum elevation drop used for Conduit Cond4187
  WARNING 04: minimum elevation drop used for Conduit Cond4354
  WARNING 04: minimum elevation drop used for Conduit Cond4510
  
  ****************
  Analysis Options
  ****************
  Flow Units ............... CMS
  Process Models:
    Rainfall/Runoff ........ YES
    RDII ................... NO
    Snowmelt ............... NO
    Groundwater ............ NO
    Flow Routing ........... YES
    Ponding Allowed ........ YES
    Water Quality .......... NO
  Infiltration Method ...... HORTON
  Flow Routing Method ...... DYNWAVE
  Surcharge Method ......... EXTRAN
  Starting Date ............ 07/29/2023 00:00:00
  Ending Date .............. 07/31/2023 02:00:00
  Antecedent Dry Days ...... 0.0
  Report Time Step ......... 01:00:00
  Wet Time Step ............ 00:01:00
  Dry Time Step ............ 00:01:00
  Routing Time Step ........ 5.00 sec
  Variable Time Step ....... YES
  Maximum Trials ........... 8
  Number of Threads ........ 1
  Head Tolerance ........... 0.001500 m
  
  
  **************************        Volume         Depth
  Runoff Quantity Continuity     hectare-m            mm
  **************************     ---------       -------
  Total Precipitation ......         4.575       143.900
  Evaporation Loss .........         0.000         0.000
  Infiltration Loss ........         0.452        14.207
  Surface Runoff ...........         3.845       120.933
  Final Storage ............         0.279         8.764
  Continuity Error (%) .....        -0.003
  
  
  **************************        Volume        Volume
  Flow Routing Continuity        hectare-m      10^6 ltr
  **************************     ---------     ---------
  Dry Weather Inflow .......         0.000         0.000
  Wet Weather Inflow .......         3.845        38.451
  Groundwater Inflow .......         0.000         0.000
  RDII Inflow ..............         0.000         0.000
  External Inflow ..........         0.000         0.000
  External Outflow .........         3.655        36.550
  Flooding Loss ............         0.180         1.799
  Evaporation Loss .........         0.000         0.000
  Exfiltration Loss ........         0.000         0.000
  Initial Stored Volume ....         0.000         0.000
  Final Stored Volume ......         0.012         0.119
  Continuity Error (%) .....        -0.045
  
  
  *************************
  Highest Continuity Errors
  *************************
  Node Y034022 (3.20%)
  Node Y031582 (2.98%)
  Node Y030797 (1.43%)
  
  
  ***************************
  Time-Step Critical Elements
  ***************************
  Link Cond3150 (70.40%)
  Link Cond4436 (7.76%)
  Link Cond2954 (4.68%)
  Link Cond1653 (2.75%)
  Link Cond1632 (1.75%)
  
  
  ********************************
  Highest Flow Instability Indexes
  ********************************
  Link Cond4436 (46)
  Link Cond2954 (34)
  Link Cond1653 (33)
  Link Cond2611 (30)
  Link Cond3242 (28)
  
  
  *********************************
  Most Frequent Nonconverging Nodes
  *********************************
  Node PSK (13.26%)
  Node Y037549 (1.57%)
  Node Y031829 (1.55%)
  Node Y036038 (1.53%)
  Node Y031068 (1.50%)
  
  
  *************************
  Routing Time Step Summary
  *************************
  Minimum Time Step           :     0.50 sec
  Average Time Step           :     1.05 sec
  Maximum Time Step           :     5.00 sec
  % of Time in Steady State   :     0.00
  Average Iterations per Step :     3.58
  % of Steps Not Converging   :    13.26
  Time Step Frequencies       :
      5.000 -  3.155 sec      :     5.15 %
      3.155 -  1.991 sec      :     0.15 %
      1.991 -  1.256 sec      :     6.32 %
      1.256 -  0.792 sec      :    41.77 %
      0.792 -  0.500 sec      :    46.61 %
  
  
  ***************************
  Subcatchment Runoff Summary
  ***************************
  
  ------------------------------------------------------------------------------------------------------------------------------
                            Total      Total      Total      Total     Imperv       Perv      Total       Total     Peak  Runoff
                           Precip      Runon       Evap      Infil     Runoff     Runoff     Runoff      Runoff   Runoff   Coeff
  Subcatchment                 mm         mm         mm         mm         mm         mm         mm    10^6 ltr      CMS
  ------------------------------------------------------------------------------------------------------------------------------
  sub1                     143.90       0.00       0.00      14.00     121.32       0.40     121.72        0.25     0.01   0.846
  sub2                     143.90       0.00       0.00      14.06     120.72       0.33     121.06        0.17     0.01   0.841
  sub3                     143.90       0.00       0.00      14.02     121.12       0.37     121.49        0.14     0.00   0.844
  sub4                     143.90       0.00       0.00      14.01     121.18       0.38     121.56        0.14     0.00   0.845
  sub5                     143.90       0.00       0.00      14.06     120.66       0.33     120.98        0.16     0.01   0.841
  sub6                     143.90       0.00       0.00      14.06     120.73       0.33     121.06        0.15     0.00   0.841
  sub7                     143.90       0.00       0.00      14.04     120.92       0.35     121.27        0.18     0.01   0.843
  sub8                     143.90       0.00       0.00      14.03     121.03       0.36     121.39        0.25     0.01   0.844
  sub9                     143.90       0.00       0.00      14.00     121.29       0.39     121.69        0.13     0.00   0.846
  sub10                    143.90       0.00       0.00      14.08     120.48       0.31     120.79        0.22     0.01   0.839
  sub11                    143.90       0.00       0.00      14.07     120.55       0.32     120.87        0.28     0.01   0.840
  sub12                    143.90       0.00       0.00      14.07     120.54       0.32     120.86        0.29     0.01   0.840
  sub13                    143.90       0.00       0.00      14.08     120.39       0.31     120.69        0.29     0.01   0.839
  sub14                    143.90       0.00       0.00      14.02     121.13       0.37     121.50        0.19     0.01   0.844
  sub15                    143.90       0.00       0.00      14.02     121.08       0.37     121.45        0.20     0.01   0.844
  sub16                    143.90       0.00       0.00      14.07     120.60       0.32     120.92        0.27     0.01   0.840
  sub17                    143.90       0.00       0.00      14.09     120.18       0.30     120.47        0.20     0.01   0.837
  sub18                    143.90       0.00       0.00      14.02     121.16       0.38     121.53        0.16     0.01   0.845
  sub19                    143.90       0.00       0.00      14.01     121.25       0.39     121.63        0.08     0.00   0.845
  sub20                    143.90       0.00       0.00      14.00     121.29       0.39     121.68        0.16     0.01   0.846
  sub21                    143.90       0.00       0.00      14.08     120.40       0.31     120.71        0.35     0.01   0.839
  sub22                    143.90       0.00       0.00      14.13     119.59       0.27     119.86        0.45     0.01   0.833
  sub23                    143.90       0.00       0.00      14.07     120.58       0.32     120.90        0.17     0.01   0.840
  sub24                    143.90       0.00       0.00      14.16     118.52       0.23     118.75        0.54     0.02   0.825
  sub25                    143.90       0.00       0.00      14.02     121.13       0.37     121.50        0.14     0.00   0.844
  sub26                    143.90       0.00       0.00      13.84     122.05       0.55     122.60        0.02     0.00   0.852
  sub27                    143.90       0.00       0.00      13.99     121.37       0.40     121.78        0.14     0.00   0.846
  sub28                    143.90       0.00       0.00      14.04     120.88       0.35     121.23        0.13     0.00   0.842
  sub29                    143.90       0.00       0.00      14.03     121.01       0.36     121.37        0.20     0.01   0.843
  sub30                    143.90       0.00       0.00      14.09     120.26       0.30     120.56        0.41     0.01   0.838
  sub31                    143.90       0.00       0.00      14.08     120.49       0.32     120.81        0.20     0.01   0.840
  sub32                    143.90       0.00       0.00      14.01     121.19       0.38     121.57        0.14     0.00   0.845
  sub33                    143.90       0.00       0.00      14.13     119.52       0.26     119.78        0.50     0.02   0.832
  sub34                    143.90       0.00       0.00      14.11     119.93       0.28     120.21        0.20     0.01   0.835
  sub35                    143.90       0.00       0.00      13.98     121.44       0.41     121.85        0.10     0.00   0.847
  sub36                    143.90       0.00       0.00      14.10     120.07       0.29     120.36        0.32     0.01   0.836
  sub37                    143.90       0.00       0.00      14.02     121.16       0.38     121.54        0.12     0.00   0.845
  sub38                    143.90       0.00       0.00      14.06     120.67       0.33     121.00        0.21     0.01   0.841
  sub39                    143.90       0.00       0.00      14.08     120.44       0.31     120.75        0.28     0.01   0.839
  sub40                    143.90       0.00       0.00      14.04     120.90       0.35     121.25        0.30     0.01   0.843
  sub41                    143.90       0.00       0.00      14.06     120.74       0.34     121.08        0.30     0.01   0.841
  sub42                    143.90       0.00       0.00      14.09     120.18       0.30     120.48        0.29     0.01   0.837
  sub43                    143.90       0.00       0.00      14.15     119.08       0.24     119.33        0.34     0.01   0.829
  sub44                    143.90       0.00       0.00      13.96     121.59       0.44     122.02        0.07     0.00   0.848
  sub45                    143.90       0.00       0.00      13.90     121.86       0.50     122.36        0.05     0.00   0.850
  sub46                    143.90       0.00       0.00      14.08     120.49       0.32     120.80        0.20     0.01   0.839
  sub47                    143.90       0.00       0.00      14.04     120.92       0.35     121.27        0.16     0.01   0.843
  sub48                    143.90       0.00       0.00      14.04     120.92       0.35     121.27        0.26     0.01   0.843
  sub49                    143.90       0.00       0.00      13.95     121.63       0.44     122.07        0.10     0.00   0.848
  sub50                    143.90       0.00       0.00      14.03     121.02       0.36     121.38        0.15     0.00   0.843
  sub51                    143.90       0.00       0.00      16.21     118.74       0.36     119.10        0.18     0.01   0.828
  sub52                    143.90       0.00       0.00      14.20     121.12       0.40     121.51        0.13     0.00   0.844
  sub53                    143.90       0.00       0.00      14.09     120.19       0.30     120.49        0.34     0.01   0.837
  sub54                    143.90       0.00       0.00      13.98     121.45       0.41     121.86        0.14     0.00   0.847
  sub55                    143.90       0.00       0.00      13.86     121.99       0.53     122.52        0.03     0.00   0.851
  sub56                    143.90       0.00       0.00      14.07     120.60       0.32     120.93        0.39     0.01   0.840
  sub57                    143.90       0.00       0.00      13.99     121.37       0.40     121.77        0.19     0.01   0.846
  sub58                    143.90       0.00       0.00      14.06     120.64       0.33     120.97        0.25     0.01   0.841
  sub59                    143.90       0.00       0.00      14.00     121.27       0.39     121.65        0.17     0.01   0.845
  sub60                    143.90       0.00       0.00      13.93     121.70       0.46     122.16        0.06     0.00   0.849
  sub61                    143.90       0.00       0.00      14.03     121.02       0.36     121.38        0.20     0.01   0.844
  sub62                    143.90       0.00       0.00      13.91     121.80       0.48     122.28        0.05     0.00   0.850
  sub63                    143.90       0.00       0.00      13.88     121.93       0.51     122.44        0.02     0.00   0.851
  sub64                    143.90       0.00       0.00      13.99     121.37       0.40     121.77        0.14     0.00   0.846
  sub65                    143.90       0.00       0.00      13.96     121.55       0.43     121.98        0.12     0.00   0.848
  sub66                    143.90       0.00       0.00      13.86     121.97       0.53     122.50        0.04     0.00   0.851
  sub67                    143.90       0.00       0.00      13.92     121.78       0.47     122.25        0.06     0.00   0.850
  sub68                    143.90       0.00       0.00      13.88     121.92       0.51     122.43        0.04     0.00   0.851
  sub69                    143.90       0.00       0.00      13.93     121.71       0.46     122.17        0.06     0.00   0.849
  sub70                    143.90       0.00       0.00      13.95     121.61       0.44     122.05        0.13     0.00   0.848
  sub71                    143.90       0.00       0.00      13.99     121.39       0.40     121.79        0.10     0.00   0.846
  sub72                    143.90       0.00       0.00      14.12     119.75       0.27     120.02        0.19     0.01   0.834
  sub73                    143.90       0.00       0.00      14.06     120.73       0.33     121.06        0.23     0.01   0.841
  sub74                    143.90       0.00       0.00      13.98     121.43       0.41     121.84        0.11     0.00   0.847
  sub75                    143.90       0.00       0.00      14.03     121.00       0.36     121.36        0.18     0.01   0.843
  sub76                    143.90       0.00       0.00      13.97     121.53       0.43     121.96        0.09     0.00   0.847
  sub77                    143.90       0.00       0.00      20.90     114.64       0.46     115.10        0.16     0.01   0.800
  sub78                    143.90       0.00       0.00      14.00     121.28       0.39     121.67        0.10     0.00   0.846
  sub79                    143.90       0.00       0.00      14.02     121.15       0.37     121.53        0.17     0.01   0.845
  sub80                    143.90       0.00       0.00      14.02     121.09       0.37     121.46        0.16     0.01   0.844
  sub81                    143.90       0.00       0.00      14.14     119.34       0.25     119.59        0.49     0.02   0.831
  sub82                    143.90       0.00       0.00      13.96     121.56       0.43     121.99        0.07     0.00   0.848
  sub83                    143.90       0.00       0.00      26.25     109.20       0.41     109.61        0.25     0.01   0.762
  sub84                    143.90       0.00       0.00      13.97     121.52       0.42     121.95        0.11     0.00   0.847
  sub85                    143.90       0.00       0.00      13.99     121.39       0.40     121.80        0.14     0.00   0.846
  sub86                    143.90       0.00       0.00      13.99     121.38       0.40     121.78        0.13     0.00   0.846
  sub87                    143.90       0.00       0.00      14.03     121.06       0.36     121.42        0.23     0.01   0.844
  sub88                    143.90       0.00       0.00      14.03     121.08       0.37     121.44        0.19     0.01   0.844
  sub89                    143.90       0.00       0.00      14.05     120.78       0.34     121.12        0.28     0.01   0.842
  sub90                    143.90       0.00       0.00      14.03     121.06       0.36     121.43        0.18     0.01   0.844
  sub91                    143.90       0.00       0.00      13.98     121.46       0.41     121.88        0.09     0.00   0.847
  sub92                    143.90       0.00       0.00      14.05     120.84       0.34     121.18        0.22     0.01   0.842
  sub93                    143.90       0.00       0.00      14.01     121.22       0.38     121.60        0.10     0.00   0.845
  sub94                    143.90       0.00       0.00      14.02     121.12       0.37     121.49        0.08     0.00   0.844
  sub95                    143.90       0.00       0.00      14.53     120.07       0.32     120.39        0.28     0.01   0.837
  sub96                    143.90       0.00       0.00      14.01     121.22       0.38     121.60        0.11     0.00   0.845
  sub97                    143.90       0.00       0.00      13.98     121.42       0.41     121.82        0.07     0.00   0.847
  sub98                    143.90       0.00       0.00      14.01     121.18       0.38     121.55        0.15     0.00   0.845
  sub99                    143.90       0.00       0.00      14.01     121.22       0.38     121.61        0.13     0.00   0.845
  sub100                   143.90       0.00       0.00      14.03     121.03       0.36     121.39        0.10     0.00   0.844
  sub101                   143.90       0.00       0.00      13.98     121.42       0.41     121.83        0.05     0.00   0.847
  sub102                   143.90       0.00       0.00      14.04     120.92       0.35     121.27        0.16     0.01   0.843
  sub103                   143.90       0.00       0.00      14.05     120.76       0.34     121.10        0.17     0.01   0.842
  sub104                   143.90       0.00       0.00      14.04     120.97       0.36     121.33        0.07     0.00   0.843
  sub105                   143.90       0.00       0.00      13.95     121.60       0.44     122.03        0.07     0.00   0.848
  sub106                   143.90       0.00       0.00      14.13     119.43       0.26     119.69        0.27     0.01   0.832
  sub107                   143.90       0.00       0.00      13.99     121.36       0.40     121.76        0.17     0.01   0.846
  sub108                   143.90       0.00       0.00      14.03     121.07       0.37     121.44        0.23     0.01   0.844
  sub109                   143.90       0.00       0.00      14.03     121.05       0.36     121.41        0.17     0.01   0.844
  sub110                   143.90       0.00       0.00      13.94     121.65       0.45     122.10        0.08     0.00   0.848
  sub111                   143.90       0.00       0.00      13.86     122.00       0.54     122.53        0.04     0.00   0.852
  sub112                   143.90       0.00       0.00      13.93     121.71       0.46     122.17        0.05     0.00   0.849
  sub113                   143.90       0.00       0.00      13.87     121.96       0.52     122.49        0.02     0.00   0.851
  sub114                   143.90       0.00       0.00      13.87     121.96       0.52     122.48        0.02     0.00   0.851
  sub115                   143.90       0.00       0.00      13.92     121.78       0.48     122.26        0.04     0.00   0.850
  sub116                   143.90       0.00       0.00      13.95     121.62       0.44     122.06        0.06     0.00   0.848
  sub117                   143.90       0.00       0.00      13.92     121.75       0.47     122.22        0.05     0.00   0.849
  sub118                   143.90       0.00       0.00      13.95     121.64       0.44     122.08        0.07     0.00   0.848
  sub119                   143.90       0.00       0.00      13.87     121.97       0.53     122.49        0.03     0.00   0.851
  sub120                   143.90       0.00       0.00      14.00     121.26       0.39     121.65        0.08     0.00   0.845
  sub121                   143.90       0.00       0.00      14.01     121.21       0.38     121.60        0.16     0.01   0.845
  sub122                   143.90       0.00       0.00      13.92     121.76       0.47     122.23        0.08     0.00   0.849
  sub123                   143.90       0.00       0.00      14.05     120.82       0.34     121.16        0.24     0.01   0.842
  sub124                   143.90       0.00       0.00      13.82     122.09       0.57     122.66        0.01     0.00   0.852
  sub125                   143.90       0.00       0.00      13.97     121.52       0.42     121.95        0.06     0.00   0.847
  sub126                   143.90       0.00       0.00      13.95     121.64       0.44     122.08        0.03     0.00   0.848
  sub127                   143.90       0.00       0.00      13.84     122.05       0.55     122.60        0.01     0.00   0.852
  sub128                   143.90       0.00       0.00      13.85     122.02       0.54     122.56        0.01     0.00   0.852
  sub129                   143.90       0.00       0.00      14.10     120.12       0.29     120.41        0.20     0.01   0.837
  sub130                   143.90       0.00       0.00      13.88     121.92       0.51     122.43        0.02     0.00   0.851
  sub131                   143.90       0.00       0.00      13.95     121.61       0.44     122.05        0.06     0.00   0.848
  sub132                   143.90       0.00       0.00      13.99     121.38       0.40     121.79        0.07     0.00   0.846
  sub133                   143.90       0.00       0.00      13.84     122.06       0.56     122.61        0.01     0.00   0.852
  sub134                   143.90       0.00       0.00      14.02     121.15       0.37     121.52        0.13     0.00   0.844
  sub135                   143.90       0.00       0.00      13.94     121.69       0.46     122.15        0.06     0.00   0.849
  sub136                   143.90       0.00       0.00      13.97     121.48       0.42     121.90        0.06     0.00   0.847
  sub137                   143.90       0.00       0.00      13.94     121.69       0.45     122.14        0.05     0.00   0.849
  sub138                   143.90       0.00       0.00      13.88     121.93       0.51     122.44        0.03     0.00   0.851
  sub139                   143.90       0.00       0.00      13.95     121.63       0.44     122.07        0.07     0.00   0.848
  sub140                   143.90       0.00       0.00      13.90     121.86       0.49     122.35        0.04     0.00   0.850
  sub141                   143.90       0.00       0.00      13.99     121.40       0.40     121.80        0.11     0.00   0.846
  sub142                   143.90       0.00       0.00      14.02     121.13       0.37     121.50        0.17     0.01   0.844
  sub143                   143.90       0.00       0.00      14.00     121.33       0.40     121.72        0.13     0.00   0.846
  sub144                   143.90       0.00       0.00      14.11     119.89       0.28     120.17        0.19     0.01   0.835
  sub145                   143.90       0.00       0.00      14.09     120.20       0.30     120.50        0.32     0.01   0.837
  sub146                   143.90       0.00       0.00      14.04     120.91       0.35     121.26        0.10     0.00   0.843
  sub147                   143.90       0.00       0.00      13.96     121.54       0.43     121.97        0.07     0.00   0.848
  sub148                   143.90       0.00       0.00      13.93     121.70       0.46     122.16        0.08     0.00   0.849
  sub149                   143.90       0.00       0.00      13.94     121.69       0.46     122.15        0.04     0.00   0.849
  sub150                   143.90       0.00       0.00      13.90     121.85       0.49     122.34        0.04     0.00   0.850
  sub151                   143.90       0.00       0.00      13.97     121.49       0.42     121.90        0.12     0.00   0.847
  sub152                   143.90       0.00       0.00      13.90     121.86       0.50     122.36        0.04     0.00   0.850
  sub153                   143.90       0.00       0.00      13.92     121.78       0.47     122.25        0.04     0.00   0.850
  sub154                   143.90       0.00       0.00      13.99     121.34       0.40     121.73        0.13     0.00   0.846
  sub155                   143.90       0.00       0.00      14.00     121.31       0.39     121.70        0.08     0.00   0.846
  sub156                   143.90       0.00       0.00      13.97     121.53       0.43     121.96        0.10     0.00   0.848
  sub157                   143.90       0.00       0.00      13.94     121.67       0.45     122.12        0.05     0.00   0.849
  sub158                   143.90       0.00       0.00      13.97     121.49       0.42     121.91        0.08     0.00   0.847
  sub159                   143.90       0.00       0.00      14.10     120.08       0.29     120.37        0.26     0.01   0.836
  sub160                   143.90       0.00       0.00      14.02     121.09       0.37     121.46        0.13     0.00   0.844
  sub161                   143.90       0.00       0.00      13.93     121.74       0.47     122.20        0.04     0.00   0.849
  sub162                   143.90       0.00       0.00      13.98     121.41       0.41     121.81        0.07     0.00   0.847
  sub163                   143.90       0.00       0.00      14.04     120.95       0.35     121.30        0.16     0.00   0.843
  sub164                   143.90       0.00       0.00      14.03     121.07       0.37     121.44        0.19     0.01   0.844
  sub165                   143.90       0.00       0.00      13.98     121.47       0.42     121.89        0.08     0.00   0.847
  sub166                   143.90       0.00       0.00      14.05     120.86       0.34     121.20        0.21     0.01   0.842
  sub167                   143.90       0.00       0.00      13.98     121.46       0.41     121.88        0.11     0.00   0.847
  sub168                   143.90       0.00       0.00      14.01     121.22       0.38     121.60        0.10     0.00   0.845
  sub169                   143.90       0.00       0.00      14.01     121.19       0.38     121.57        0.07     0.00   0.845
  sub170                   143.90       0.00       0.00      13.98     121.44       0.41     121.85        0.08     0.00   0.847
  sub171                   143.90       0.00       0.00      13.92     121.79       0.48     122.27        0.03     0.00   0.850
  sub172                   143.90       0.00       0.00      14.02     121.13       0.37     121.51        0.15     0.00   0.844
  sub173                   143.90       0.00       0.00      13.98     121.45       0.41     121.86        0.07     0.00   0.847
  sub174                   143.90       0.00       0.00      14.03     121.06       0.36     121.42        0.19     0.01   0.844
  sub175                   143.90       0.00       0.00      13.98     121.43       0.41     121.84        0.06     0.00   0.847
  sub176                   143.90       0.00       0.00      13.99     121.33       0.40     121.73        0.07     0.00   0.846
  sub177                   143.90       0.00       0.00      13.99     121.33       0.40     121.73        0.10     0.00   0.846
  sub178                   143.90       0.00       0.00      13.98     121.40       0.41     121.81        0.10     0.00   0.846
  sub179                   143.90       0.00       0.00      14.02     121.08       0.37     121.45        0.16     0.01   0.844
  sub180                   143.90       0.00       0.00      14.07     120.56       0.32     120.88        0.21     0.01   0.840
  sub181                   143.90       0.00       0.00      13.91     121.80       0.48     122.28        0.06     0.00   0.850
  sub182                   143.90       0.00       0.00      13.82     122.10       0.58     122.68        0.01     0.00   0.853
  sub183                   143.90       0.00       0.00      13.84     122.04       0.55     122.60        0.02     0.00   0.852
  sub184                   143.90       0.00       0.00      13.92     121.78       0.47     122.25        0.03     0.00   0.850
  sub185                   143.90       0.00       0.00      13.88     121.92       0.51     122.43        0.02     0.00   0.851
  sub186                   143.90       0.00       0.00      14.05     120.80       0.34     121.14        0.13     0.00   0.842
  sub187                   143.90       0.00       0.00      14.15     118.88       0.24     119.12        0.52     0.02   0.828
  sub188                   143.90       0.00       0.00      14.04     120.93       0.35     121.28        0.14     0.00   0.843
  sub189                   143.90       0.00       0.00      13.99     121.33       0.40     121.73        0.06     0.00   0.846
  sub190                   143.90       0.00       0.00      15.00     119.76       0.34     120.09        0.34     0.01   0.835
  sub191                   143.90       0.00       0.00      15.48     119.37       0.35     119.71        0.28     0.01   0.832
  sub192                   143.90       0.00       0.00      13.99     121.37       0.40     121.77        0.13     0.00   0.846
  sub193                   143.90       0.00       0.00      13.99     121.39       0.40     121.80        0.09     0.00   0.846
  sub194                   143.90       0.00       0.00      16.08     118.82       0.36     119.17        0.26     0.01   0.828
  sub195                   143.90       0.00       0.00      14.01     121.23       0.38     121.61        0.15     0.00   0.845
  sub196                   143.90       0.00       0.00      14.17     118.26       0.22     118.48        0.49     0.01   0.823
  sub197                   143.90       0.00       0.00      13.94     121.65       0.45     122.10        0.03     0.00   0.849
  sub198                   143.90       0.00       0.00      13.78     122.18       0.62     122.80        0.00     0.00   0.853
  sub199                   143.90       0.00       0.00      14.04     120.94       0.35     121.29        0.13     0.00   0.843
  sub200                   143.90       0.00       0.00      14.01     121.20       0.38     121.58        0.13     0.00   0.845
  sub201                   143.90       0.00       0.00      14.01     121.20       0.38     121.58        0.20     0.01   0.845
  sub202                   143.90       0.00       0.00      13.91     121.81       0.48     122.29        0.05     0.00   0.850
  sub203                   143.90       0.00       0.00      13.97     121.51       0.42     121.93        0.04     0.00   0.847
  sub204                   143.90       0.00       0.00      14.01     121.20       0.38     121.58        0.09     0.00   0.845
  sub205                   143.90       0.00       0.00      13.95     121.63       0.44     122.07        0.06     0.00   0.848
  sub206                   143.90       0.00       0.00      14.08     120.43       0.31     120.74        0.26     0.01   0.839
  sub207                   143.90       0.00       0.00      14.02     121.17       0.38     121.54        0.05     0.00   0.845
  sub208                   143.90       0.00       0.00      13.92     121.78       0.47     122.25        0.04     0.00   0.850
  sub209                   143.90       0.00       0.00      13.99     121.38       0.40     121.79        0.06     0.00   0.846
  sub210                   143.90       0.00       0.00      13.94     121.69       0.46     122.15        0.04     0.00   0.849
  sub211                   143.90       0.00       0.00      14.07     120.55       0.32     120.87        0.15     0.00   0.840
  sub212                   143.90       0.00       0.00      13.98     121.44       0.41     121.85        0.08     0.00   0.847
  sub213                   143.90       0.00       0.00      13.96     121.56       0.43     121.99        0.07     0.00   0.848
  sub214                   143.90       0.00       0.00      13.99     121.36       0.40     121.76        0.10     0.00   0.846
  sub215                   143.90       0.00       0.00      14.00     121.27       0.39     121.66        0.11     0.00   0.845
  sub216                   143.90       0.00       0.00      13.88     121.91       0.51     122.42        0.03     0.00   0.851
  sub217                   143.90       0.00       0.00      13.89     121.91       0.51     122.41        0.05     0.00   0.851
  sub218                   143.90       0.00       0.00      13.99     121.36       0.40     121.76        0.10     0.00   0.846
  sub219                   143.90       0.00       0.00      13.98     121.44       0.41     121.85        0.15     0.00   0.847
  sub220                   143.90       0.00       0.00      13.85     122.01       0.54     122.55        0.02     0.00   0.852
  sub221                   143.90       0.00       0.00      13.89     121.90       0.50     122.40        0.04     0.00   0.851
  sub222                   143.90       0.00       0.00      13.90     121.85       0.49     122.34        0.05     0.00   0.850
  sub223                   143.90       0.00       0.00      14.07     120.52       0.32     120.84        0.23     0.01   0.840
  sub224                   143.90       0.00       0.00      13.96     121.59       0.44     122.02        0.07     0.00   0.848
  sub225                   143.90       0.00       0.00      14.10     120.15       0.29     120.44        0.25     0.01   0.837
  sub226                   143.90       0.00       0.00      14.07     120.58       0.32     120.90        0.33     0.01   0.840
  sub227                   143.90       0.00       0.00      14.01     121.23       0.38     121.61        0.10     0.00   0.845
  sub228                   143.90       0.00       0.00      14.11     119.99       0.28     120.27        0.43     0.01   0.836
  sub229                   143.90       0.00       0.00      14.06     120.68       0.33     121.01        0.18     0.01   0.841
  sub230                   143.90       0.00       0.00      13.98     121.43       0.41     121.84        0.12     0.00   0.847
  sub231                   143.90       0.00       0.00      14.01     121.21       0.38     121.59        0.10     0.00   0.845
  sub232                   143.90       0.00       0.00      13.87     121.95       0.52     122.47        0.03     0.00   0.851
  sub233                   143.90       0.00       0.00      13.98     121.44       0.41     121.85        0.07     0.00   0.847
  sub234                   143.90       0.00       0.00      14.04     120.95       0.35     121.30        0.17     0.01   0.843
  sub235                   143.90       0.00       0.00      13.99     121.39       0.40     121.79        0.08     0.00   0.846
  sub236                   143.90       0.00       0.00      14.03     121.03       0.36     121.40        0.15     0.00   0.844
  sub237                   143.90       0.00       0.00      13.95     121.63       0.44     122.07        0.05     0.00   0.848
  sub238                   143.90       0.00       0.00      14.01     121.24       0.39     121.63        0.08     0.00   0.845
  sub239                   143.90       0.00       0.00      13.99     121.35       0.40     121.75        0.12     0.00   0.846
  sub240                   143.90       0.00       0.00      14.00     121.26       0.39     121.65        0.10     0.00   0.845
  sub241                   143.90       0.00       0.00      14.00     121.31       0.39     121.70        0.05     0.00   0.846
  sub242                   143.90       0.00       0.00      13.99     121.37       0.40     121.78        0.09     0.00   0.846
  sub243                   143.90       0.00       0.00      14.00     121.31       0.39     121.70        0.15     0.00   0.846
  sub244                   143.90       0.00       0.00      13.97     121.52       0.42     121.95        0.11     0.00   0.847
  sub245                   143.90       0.00       0.00      13.99     121.35       0.40     121.75        0.14     0.00   0.846
  sub246                   143.90       0.00       0.00      13.89     121.90       0.50     122.40        0.05     0.00   0.851
  sub247                   143.90       0.00       0.00      14.15     119.01       0.24     119.25        0.47     0.01   0.829
  sub248                   143.90       0.00       0.00      13.99     121.37       0.40     121.77        0.11     0.00   0.846
  sub249                   143.90       0.00       0.00      14.00     121.26       0.39     121.65        0.07     0.00   0.845
  sub250                   143.90       0.00       0.00      13.94     121.67       0.45     122.12        0.03     0.00   0.849
  sub251                   143.90       0.00       0.00      14.06     120.68       0.33     121.01        0.27     0.01   0.841
  sub252                   143.90       0.00       0.00      14.02     121.11       0.37     121.48        0.18     0.01   0.844
  sub253                   143.90       0.00       0.00      14.07     120.53       0.32     120.85        0.24     0.01   0.840
  sub254                   143.90       0.00       0.00      14.09     120.24       0.30     120.54        0.37     0.01   0.838
  sub255                   143.90       0.00       0.00      14.05     120.75       0.34     121.09        0.26     0.01   0.841
  sub256                   143.90       0.00       0.00      14.05     120.77       0.34     121.10        0.24     0.01   0.842
  sub257                   143.90       0.00       0.00      14.06     120.65       0.33     120.98        0.26     0.01   0.841
  sub258                   143.90       0.00       0.00      14.07     120.59       0.32     120.91        0.27     0.01   0.840
  sub259                   143.90       0.00       0.00      14.06     120.64       0.33     120.97        0.26     0.01   0.841
  sub260                   143.90       0.00       0.00      14.05     120.78       0.34     121.12        0.22     0.01   0.842
  sub261                   143.90       0.00       0.00      14.05     120.81       0.34     121.15        0.21     0.01   0.842
  sub262                   143.90       0.00       0.00      13.97     121.53       0.42     121.95        0.16     0.01   0.847
  sub263                   143.90       0.00       0.00      13.90     121.85       0.49     122.34        0.06     0.00   0.850
  sub264                   143.90       0.00       0.00      14.07     120.57       0.32     120.89        0.32     0.01   0.840
  sub265                   143.90       0.00       0.00      13.96     121.56       0.43     121.99        0.14     0.00   0.848
  sub266                   143.90       0.00       0.00      13.97     121.52       0.42     121.94        0.06     0.00   0.847
  
  
  ******************
  Node Depth Summary
  ******************
  
  ---------------------------------------------------------------------------------
                                 Average  Maximum  Maximum  Time of Max    Reported
                                   Depth    Depth      HGL   Occurrence   Max Depth
  Node                 Type       Meters   Meters   Meters  days hr:min      Meters
  ---------------------------------------------------------------------------------
  Y029640              JUNCTION     0.14     0.77    44.43     1  05:17        0.62
  Y029650              JUNCTION     0.14     0.72    44.11     1  15:14        0.58
  Y029652              JUNCTION     0.14     0.49    44.42     1  17:02        0.43
  Y029653              JUNCTION     0.12     0.74    44.45     1  15:15        0.67
  Y029657              JUNCTION     0.21     0.65    40.15     1  15:19        0.57
  Y029885              JUNCTION     0.08     0.32    44.30     1  15:15        0.31
  Y029887              JUNCTION     0.10     0.26    43.54     1  15:18        0.25
  Y029904              JUNCTION     0.45     1.27    44.00     1  05:18        1.27
  Y029905              JUNCTION     0.39     1.22    44.88     1  17:06        1.17
  Y029942              JUNCTION     0.02     0.07    44.32     1  15:14        0.05
  Y029945              JUNCTION     0.27     0.97    44.56     1  05:21        0.95
  Y029946              JUNCTION     0.22     1.08    44.05     1  15:15        0.95
  Y029947              JUNCTION     0.24     0.77    40.06     1  15:19        0.68
  Y029949              JUNCTION     0.14     0.74    44.27     1  17:02        0.63
  Y029950              JUNCTION     0.21     0.60    43.16     1  15:14        0.54
  Y029959              JUNCTION     0.10     0.28    43.76     1  15:17        0.24
  Y029961              JUNCTION     0.35     0.84    39.64     1  15:19        0.80
  Y029962              JUNCTION     0.00     0.01    44.02     1  15:14        0.01
  Y029963              JUNCTION     0.27     1.57    45.54     1  17:04        1.09
  Y030009              JUNCTION     0.02     0.04    44.06     1  05:05        0.04
  Y030023              JUNCTION     0.04     0.09    44.32     1  15:14        0.09
  Y030024              JUNCTION     0.19     0.42    43.80     1  15:18        0.39
  Y030078              JUNCTION     0.34     0.58    43.81     1  15:17        0.55
  Y030099              JUNCTION     0.12     1.09    44.85     1  17:01        0.52
  Y030124              JUNCTION     0.60     1.92    45.54     1  17:04        1.44
  Y030134              JUNCTION     0.19     0.95    44.86     1  12:42        0.95
  Y030135              JUNCTION     0.39     1.60    45.13     1  17:05        1.36
  Y030179              JUNCTION     0.02     0.05    43.80     1  15:14        0.05
  Y030217              JUNCTION     0.11     0.24    43.28     1  15:17        0.22
  Y030306              JUNCTION     0.13     0.92    45.06     1  17:06        0.74
  Y030397              JUNCTION     0.36     0.82    39.50     1  15:19        0.79
  Y030527              JUNCTION     0.12     0.88    45.08     1  17:06        0.68
  Y030541              JUNCTION     0.47     1.40    44.76     1  05:21        1.25
  Y030542              JUNCTION     0.31     1.07    44.45     1  15:15        1.00
  Y030543              JUNCTION     0.43     1.35    44.22     1  17:05        1.33
  Y030548              JUNCTION     0.39     1.34    44.03     1  15:15        1.21
  Y030582              JUNCTION     0.06     0.11    42.06     1  15:14        0.11
  Y030583              JUNCTION     0.19     0.99    44.93     1  17:06        0.93
  Y030585              JUNCTION     0.20     0.90    44.26     1  05:17        0.78
  Y030587              JUNCTION     0.10     0.68    44.51     1  17:01        0.46
  Y030588              JUNCTION     0.45     1.33    44.71     1  05:21        1.22
  Y030601              JUNCTION     0.06     0.15    43.89     1  15:14        0.14
  Y030640              JUNCTION     0.22     0.94    44.40     1  05:17        0.82
  Y030711              JUNCTION     0.40     1.16    44.45     1  15:15        1.07
  Y030712              JUNCTION     0.18     0.56    44.12     1  15:15        0.44
  Y030713              JUNCTION     0.88     1.84    44.77     1  05:21        1.69
  Y030795              JUNCTION     0.54     1.45    44.14     1  15:05        1.44
  Y030796              JUNCTION     0.07     0.26    44.20     1  15:15        0.24
  Y030797              JUNCTION     0.28     0.78    44.56     1  05:22        0.76
  Y030798              JUNCTION     0.17     0.87    44.29     1  05:17        0.72
  Y030800              JUNCTION     0.19     1.01    44.88     1  17:06        0.96
  Y030801              JUNCTION     0.10     1.36    45.76     1  05:22        0.59
  Y030963              JUNCTION     0.09     0.28    43.82     1  15:17        0.24
  Y030969              JUNCTION     0.20     0.58    44.12     1  15:15        0.46
  Y030971              JUNCTION     0.28     1.06    44.30     1  05:21        1.02
  Y030991              JUNCTION     0.13     0.40    43.72     1  15:17        0.36
  Y031021              JUNCTION     0.09     0.33    43.75     1  15:17        0.28
  Y031068              JUNCTION     0.50     1.49    44.84     1  17:04        1.35
  Y031069              JUNCTION     0.24     1.61    45.54     1  17:05        1.04
  Y031121              JUNCTION     0.19     0.50    42.95     1  15:14        0.47
  Y031141              JUNCTION     0.31     1.04    43.68     1  15:14        0.92
  Y031142              JUNCTION     0.08     0.69    45.09     1  17:06        0.49
  Y031148              JUNCTION     0.28     1.04    44.30     1  17:04        1.01
  Y031149              JUNCTION     0.24     0.99    44.17     1  15:13        0.93
  Y031152              JUNCTION     0.46     1.26    43.83     1  15:13        1.24
  Y031230              JUNCTION     0.16     0.47    43.94     1  15:17        0.39
  Y031236              JUNCTION     0.38     1.07    44.52     1  05:21        1.07
  Y031393              JUNCTION     0.15     0.84    44.45     1  15:15        0.76
  Y031395              JUNCTION     0.26     1.13    44.88     1  17:06        1.07
  Y031417              JUNCTION     0.21     0.83    44.57     1  12:23        0.80
  Y031418              JUNCTION     0.60     1.70    45.22     1  17:04        1.44
  Y031419              JUNCTION     0.33     0.89    39.98     1  15:19        0.81
  Y031420              JUNCTION     0.27     1.38    45.22     1  17:05        1.10
  Y031421              JUNCTION     0.24     0.90    44.31     1  15:14        0.80
  Y031535              JUNCTION     0.11     1.79    46.22     1  17:04        0.55
  Y031537              JUNCTION     0.24     1.53    45.46     1  17:05        1.04
  Y031544              JUNCTION     0.11     0.81    45.09     1  17:06        0.60
  Y031581              JUNCTION     0.24     1.01    44.22     1  15:14        0.94
  Y031582              JUNCTION     0.51     1.29    44.46     1  15:15        1.20
  Y031583              JUNCTION     0.23     0.70    40.13     1  15:19        0.61
  Y031584              JUNCTION     0.07     1.48    46.05     1  17:05        0.42
  Y031610              JUNCTION     0.33     0.71    39.31     1  15:18        0.68
  Y031614              JUNCTION     0.31     1.69    45.61     1  17:04        1.13
  Y031730              JUNCTION     0.01     0.02    44.32     1  05:05        0.02
  Y031737              JUNCTION     0.25     1.00    44.45     1  15:14        0.92
  Y031826              JUNCTION     0.22     1.59    45.60     1  17:04        1.04
  Y031827              JUNCTION     0.15     0.42    43.71     1  15:18        0.39
  Y031829              JUNCTION     0.43     1.33    44.87     1  17:06        1.25
  Y031830              JUNCTION     0.19     0.55    43.07     1  15:14        0.49
  Y031892              JUNCTION     0.26     0.95    44.36     1  15:13        0.85
  Y031893              JUNCTION     0.34     1.43    45.22     1  17:05        1.17
  Y031898              JUNCTION     0.02     0.04    43.90     1  15:14        0.04
  Y031903              JUNCTION     0.54     1.45    44.74     1  05:21        1.33
  Y031999              JUNCTION     0.55     1.44    44.11     1  17:15        1.43
  Y032107              JUNCTION     0.42     0.96    39.78     1  15:19        0.91
  Y032134              JUNCTION     0.35     0.91    40.04     1  15:19        0.82
  Y032136              JUNCTION     0.34     0.85    44.56     1  12:23        0.82
  Y032230              JUNCTION     0.04     0.15    43.77     1  15:17        0.10
  Y032232              JUNCTION     0.02     0.04    43.90     1  05:05        0.04
  Y032273              JUNCTION     0.17     0.66    44.56     1  05:21        0.64
  Y032275              JUNCTION     0.24     0.98    44.22     1  15:13        0.92
  Y032276              JUNCTION     0.35     1.14    44.44     1  05:21        1.10
  Y032277              JUNCTION     0.35     1.11    44.45     1  15:15        1.02
  Y032283              JUNCTION     0.02     0.05    44.18     1  15:14        0.04
  Y032285              JUNCTION     0.15     0.77    44.44     1  05:17        0.61
  Y032311              JUNCTION     0.54     1.45    44.15     1  15:22        1.44
  Y032312              JUNCTION     0.29     1.08    43.77     1  15:14        0.96
  Y032313              JUNCTION     0.49     1.46    44.81     1  17:04        1.31
  Y032314              JUNCTION     0.14     0.52    44.48     1  15:16        0.49
  Y032315              JUNCTION     0.13     0.87    44.90     1  05:21        0.60
  Y032357              JUNCTION     0.39     0.97    39.86     1  15:19        0.91
  Y032358              JUNCTION     0.44     1.71    45.50     1  17:04        1.27
  Y032363              JUNCTION     0.43     1.69    45.40     1  17:04        1.30
  Y032374              JUNCTION     0.60     1.92    45.54     1  17:04        1.44
  Y032375              JUNCTION     0.28     1.66    45.62     1  17:04        1.10
  Y032607              JUNCTION     0.24     0.52    39.05     1  15:18        0.51
  Y032608              JUNCTION     0.22     0.91    44.36     1  05:17        0.83
  Y032611              JUNCTION     0.15     0.51    40.16     1  15:19        0.42
  Y032701              JUNCTION     0.10     0.85    44.49     1  05:17        0.50
  Y032719              JUNCTION     0.33     0.91    39.93     1  15:19        0.84
  Y032731              JUNCTION     0.24     0.72    43.30     1  15:14        0.65
  Y032741              JUNCTION     0.32     1.13    43.82     1  15:16        1.02
  Y032747              JUNCTION     0.23     0.47    43.81     1  15:17        0.44
  Y032760              JUNCTION     0.21     1.08    44.86     1  17:06        1.01
  Y032829              JUNCTION     0.03     0.07    43.97     1  15:14        0.07
  Y032839              JUNCTION     0.37     1.72    45.58     1  17:04        1.19
  Y032897              JUNCTION     0.27     0.38    43.90     1  15:14        0.37
  Y032936              JUNCTION     0.27     1.02    44.45     1  15:13        0.95
  Y032937              JUNCTION     0.33     1.23    44.14     1  15:12        1.17
  Y032938              JUNCTION     0.25     1.09    44.06     1  15:15        0.96
  Y033129              JUNCTION     0.07     0.43    44.21     1  15:14        0.38
  Y033131              JUNCTION     0.29     1.11    44.19     1  15:13        1.04
  Y033133              JUNCTION     0.71     1.49    44.45     1  15:13        1.40
  Y033153              JUNCTION     0.32     1.24    44.74     1  17:06        1.19
  Y033202              JUNCTION     0.38     1.18    44.55     1  05:17        1.18
  Y033204              JUNCTION     0.28     0.89    43.51     1  15:15        0.79
  Y033275              JUNCTION     0.11     0.44    44.41     1  15:16        0.42
  Y033307              JUNCTION     0.01     0.02    44.18     1  05:18        0.01
  Y033332              JUNCTION     0.05     0.36    44.43     1  05:22        0.22
  Y033333              JUNCTION     0.46     1.16    43.59     1  15:12        1.14
  Y033338              JUNCTION     0.02     0.06    43.84     1  15:15        0.05
  Y033431              JUNCTION     0.15     0.99    45.04     1  17:06        0.83
  Y033479              JUNCTION     0.12     0.33    43.75     1  15:18        0.29
  Y033523              JUNCTION     0.41     1.76    45.49     1  17:04        1.30
  Y033526              JUNCTION     0.08     0.18    41.31     1  15:14        0.17
  Y033528              JUNCTION     0.13     0.51    44.47     1  15:15        0.49
  Y033578              JUNCTION     0.02     0.11    43.82     1  15:18        0.06
  Y033580              JUNCTION     0.30     0.58    43.70     1  15:19        0.54
  Y033666              JUNCTION     0.37     1.33    44.79     1  17:04        1.16
  Y033681              JUNCTION     0.15     0.86    44.80     1  17:04        0.69
  Y033682              JUNCTION     0.42     1.18    44.45     1  15:15        1.10
  Y033683              JUNCTION     0.14     0.52    44.49     1  15:15        0.50
  Y033721              JUNCTION     0.06     0.12    44.04     1  15:14        0.12
  Y033724              JUNCTION     0.16     0.43    43.74     1  15:17        0.39
  Y033743              JUNCTION     0.13     0.68    44.13     1  15:15        0.54
  Y033768              JUNCTION     0.15     0.70    44.34     1  17:05        0.64
  Y033772              JUNCTION     0.27     1.31    45.18     1  17:04        1.10
  Y033773              JUNCTION     0.11     0.25    42.42     1  15:14        0.24
  Y033777              JUNCTION     0.37     1.33    44.79     1  17:04        1.17
  Y033912              JUNCTION     0.22     1.10    44.86     1  17:06        1.03
  Y033913              JUNCTION     0.26     0.97    44.32     1  17:05        0.93
  Y033936              JUNCTION     0.18     0.75    44.14     1  15:16        0.60
  Y033937              JUNCTION     0.19     0.40    41.54     1  15:14        0.39
  Y033938              JUNCTION     0.38     1.20    44.65     1  15:13        1.14
  Y034019              JUNCTION     0.16     0.82    44.23     1  15:13        0.75
  Y034022              JUNCTION     0.28     0.77    44.55     1  05:21        0.76
  Y034023              JUNCTION     0.49     1.32    44.66     1  05:21        1.27
  Y034024              JUNCTION     0.30     1.07    44.23     1  15:14        0.99
  Y034233              JUNCTION     0.19     0.87    44.21     1  05:17        0.79
  Y034253              JUNCTION     0.04     0.09    44.37     1  15:14        0.08
  Y034256              JUNCTION     0.53     1.45    44.17     1  05:21        1.45
  Y034312              JUNCTION     0.17     0.40    42.69     1  15:14        0.39
  Y034314              JUNCTION     0.26     0.77    40.10     1  15:19        0.68
  Y034349              JUNCTION     0.13     0.35    43.76     1  15:18        0.31
  Y034351              JUNCTION     0.16     0.43    43.72     1  15:18        0.40
  Y034355              JUNCTION     0.03     0.06    43.82     1  15:14        0.06
  Y034363              JUNCTION     0.06     0.14    43.81     1  15:15        0.13
  Y034403              JUNCTION     0.21     0.50    43.74     1  15:17        0.45
  Y034437              JUNCTION     0.57     1.44    43.97     1  15:12        1.42
  Y034542              JUNCTION     0.33     1.06    44.81     1  17:04        0.87
  Y034559              JUNCTION     0.42     1.59    45.07     1  17:05        1.40
  Y034560              JUNCTION     0.14     0.82    44.33     1  05:17        0.63
  Y034571              JUNCTION     0.24     1.63    45.57     1  17:05        1.03
  Y034572              JUNCTION     0.19     0.56    43.11     1  15:13        0.50
  Y034573              JUNCTION     0.23     0.94    44.23     1  15:13        0.86
  Y034683              JUNCTION     0.36     1.18    44.30     1  17:04        1.15
  Y034774              JUNCTION     0.08     0.46    44.12     1  15:15        0.34
  Y034775              JUNCTION     0.18     1.03    45.01     1  17:06        0.90
  Y034776              JUNCTION     0.41     1.44    44.90     1  17:04        1.31
  Y034972              JUNCTION     0.17     0.73    44.12     1  15:16        0.59
  Y034985              JUNCTION     0.42     1.76    45.57     1  17:04        1.25
  Y035031              JUNCTION     0.16     0.63    44.45     1  15:14        0.61
  Y035036              JUNCTION     0.07     0.25    44.11     1  15:15        0.21
  Y035038              JUNCTION     0.18     0.46    42.84     1  15:14        0.44
  Y035039              JUNCTION     0.28     1.02    44.30     1  17:04        0.99
  Y035073              JUNCTION     0.42     1.76    45.57     1  17:04        1.25
  Y035146              JUNCTION     0.36     1.28    43.97     1  15:15        1.16
  Y035147              JUNCTION     0.31     1.07    44.45     1  15:15        0.99
  Y035148              JUNCTION     0.28     1.06    44.21     1  15:13        1.00
  Y035152              JUNCTION     0.12     0.50    44.12     1  15:15        0.38
  Y035360              JUNCTION     0.35     0.63    43.70     1  15:18        0.59
  Y035470              JUNCTION     0.20     0.42    43.85     1  15:17        0.35
  Y035552              JUNCTION     0.28     1.43    45.21     1  17:05        1.15
  Y035645              JUNCTION     0.28     0.78    44.56     1  05:21        0.76
  Y035646              JUNCTION     0.20     0.91    44.22     1  15:13        0.85
  Y035677              JUNCTION     0.13     0.23    42.60     1  15:14        0.23
  Y035678              JUNCTION     0.29     0.96    43.60     1  15:16        0.87
  Y035684              JUNCTION     0.30     0.54    43.81     1  15:17        0.51
  Y035686              JUNCTION     0.02     0.05    43.98     1  15:15        0.04
  Y035691              JUNCTION     0.11     0.48    44.12     1  15:15        0.36
  Y035711              JUNCTION     0.11     0.38    43.73     1  15:17        0.34
  Y036038              JUNCTION     0.41     1.18    44.48     1  15:15        1.14
  Y036039              JUNCTION     0.39     1.19    44.53     1  15:12        1.16
  Y036040              JUNCTION     0.40     1.19    44.52     1  15:12        1.16
  Y036042              JUNCTION     0.37     1.32    44.01     1  15:15        1.19
  Y036418              JUNCTION     0.23     0.33    43.90     1  15:14        0.32
  Y036715              JUNCTION     0.06     0.13    42.02     1  15:17        0.12
  Y036716              JUNCTION     0.01     0.02    42.09     1  15:14        0.02
  Y036764              JUNCTION     0.33     1.05    44.56     1  05:21        1.02
  Y036765              JUNCTION     0.32     1.05    44.56     1  12:23        1.02
  Y036766              JUNCTION     0.35     1.08    44.56     1  05:21        1.05
  Y036767              JUNCTION     0.36     1.08    44.55     1  05:21        1.06
  Y036855              JUNCTION     0.07     0.15    43.67     1  15:15        0.14
  Y036856              JUNCTION     0.07     0.16    43.62     1  15:15        0.15
  Y036857              JUNCTION     0.06     0.14    43.55     1  15:15        0.13
  Y036858              JUNCTION     0.13     0.28    43.31     1  15:15        0.27
  Y036859              JUNCTION     0.14     0.29    43.31     1  15:15        0.27
  Y036860              JUNCTION     0.09     0.24    43.25     1  15:16        0.22
  Y036861              JUNCTION     0.11     0.28    43.25     1  15:16        0.26
  Y036863              JUNCTION     0.14     0.30    43.21     1  15:16        0.28
  Y036864              JUNCTION     0.12     0.27    43.16     1  15:16        0.25
  Y036865              JUNCTION     0.10     0.23    43.04     1  15:16        0.21
  Y036866              JUNCTION     0.15     0.34    42.99     1  15:16        0.31
  Y036867              JUNCTION     0.14     0.30    42.91     1  15:16        0.28
  Y036868              JUNCTION     0.11     0.25    42.85     1  15:16        0.23
  Y036869              JUNCTION     0.12     0.32    42.74     1  15:16        0.28
  Y036870              JUNCTION     0.17     0.41    42.70     1  15:16        0.38
  Y036871              JUNCTION     0.19     0.42    42.66     1  15:15        0.39
  Y036872              JUNCTION     0.14     0.32    42.54     1  15:14        0.29
  Y036874              JUNCTION     0.12     0.28    42.49     1  15:15        0.26
  Y036875              JUNCTION     0.10     0.23    42.42     1  15:15        0.21
  Y036876              JUNCTION     0.05     0.11    41.71     1  15:15        0.10
  Y036884              JUNCTION     0.03     0.06    44.44     1  15:14        0.06
  Y036885              JUNCTION     0.02     0.04    44.05     1  15:14        0.03
  Y036886              JUNCTION     0.04     0.10    43.83     1  15:15        0.09
  Y037059              JUNCTION     0.48     1.31    43.90     1  15:12        1.28
  Y037060              JUNCTION     0.25     0.50    43.82     1  15:18        0.46
  Y037061              JUNCTION     0.10     0.32    43.76     1  15:18        0.28
  Y037062              JUNCTION     0.20     0.44    43.81     1  15:18        0.41
  Y037063              JUNCTION     0.22     0.45    43.76     1  15:18        0.41
  Y037064              JUNCTION     0.03     0.07    44.37     1  15:14        0.07
  Y037065              JUNCTION     0.49     1.46    44.10     1  15:13        1.41
  Y037066              JUNCTION     0.44     1.42    44.14     1  15:13        1.37
  Y037067              JUNCTION     0.55     1.45    44.01     1  15:13        1.42
  Y037068              JUNCTION     0.58     1.46    43.99     1  15:04        1.43
  Y037069              JUNCTION     0.39     1.46    44.26     1  05:05        1.30
  Y037070              JUNCTION     0.38     1.33    44.16     1  15:14        1.27
  Y037071              JUNCTION     0.33     1.23    44.16     1  15:13        1.18
  Y037072              JUNCTION     0.51     1.43    44.04     1  15:15        1.39
  Y037073              JUNCTION     0.48     1.46    44.12     1  15:13        1.40
  Y037166              JUNCTION     0.16     0.73    43.51     1  15:15        0.64
  Y037249              JUNCTION     0.27     1.15    44.86     1  17:06        1.08
  Y037549              JUNCTION     0.31     1.16    45.00     1  05:21        0.79
  Y037550              JUNCTION     0.28     1.11    44.98     1  05:21        0.75
  YF_00530             JUNCTION     0.05     0.09    44.26     1  15:14        0.09
  YF_01035             JUNCTION     0.28     1.11    44.61     1  17:06        1.09
  PSK                  OUTFALL      0.24     0.52    38.51     1  15:19        0.51
  
  
  *******************
  Node Inflow Summary
  *******************
  
  -------------------------------------------------------------------------------------------------
                                  Maximum  Maximum                  Lateral       Total        Flow
                                  Lateral    Total  Time of Max      Inflow      Inflow     Balance
                                   Inflow   Inflow   Occurrence      Volume      Volume       Error
  Node                 Type           CMS      CMS  days hr:min    10^6 ltr    10^6 ltr     Percent
  -------------------------------------------------------------------------------------------------
  Y029640              JUNCTION     0.001    0.010     1  05:13      0.0191       0.236      -0.006
  Y029650              JUNCTION     0.004    0.130     1  05:16       0.131        4.71       0.002
  Y029652              JUNCTION     0.003    0.047     1  05:22      0.0799        1.11       0.011
  Y029653              JUNCTION     0.005    0.005     1  15:14       0.166       0.166      -0.001
  Y029657              JUNCTION     0.004    0.292     1  15:15       0.126        9.66       0.005
  Y029885              JUNCTION     0.005    0.051     1  05:22       0.162        1.22       0.001
  Y029887              JUNCTION     0.009    0.187     1  15:17       0.274        6.06      -0.012
  Y029904              JUNCTION     0.006    0.175     1  15:13       0.202        8.15       0.002
  Y029905              JUNCTION     0.004    0.030     1  12:52       0.127        1.03       0.080
  Y029942              JUNCTION     0.003    0.003     1  15:14       0.104       0.104       0.004
  Y029945              JUNCTION     0.000    0.092     1  05:05     0.00535       0.726       0.293
  Y029946              JUNCTION     0.002    0.167     1  05:02      0.0618        4.92       0.005
  Y029947              JUNCTION     0.009    0.316     1  15:21       0.297        10.5       0.007
  Y029949              JUNCTION     0.015    0.015     1  15:14       0.493       0.493       0.004
  Y029950              JUNCTION     0.006    0.248     1  15:15       0.176        8.23       0.003
  Y029959              JUNCTION     0.006    0.046     1  15:14       0.179        1.47       0.011
  Y029961              JUNCTION     0.006    0.813     1  15:19       0.201        30.7       0.007
  Y029962              JUNCTION     0.004    0.004     1  15:14       0.112       0.112       0.029
  Y029963              JUNCTION     0.014    0.039     1  17:04       0.448       0.937       0.127
  Y030009              JUNCTION     0.001    0.004     1  05:05       0.021      0.0844       0.004
  Y030023              JUNCTION     0.008    0.012     1  15:14       0.256       0.388       0.008
  Y030024              JUNCTION     0.004    0.085     1  15:16       0.116        2.72       0.044
  Y030078              JUNCTION     0.004    0.081     1  15:16        0.11        2.61       0.088
  Y030099              JUNCTION     0.005    0.009     1  17:01       0.147       0.147      -0.005
  Y030124              JUNCTION     0.002    0.039     1  17:04      0.0451        1.13       0.361
  Y030134              JUNCTION     0.005    0.030     1  17:06       0.168       0.917       0.003
  Y030135              JUNCTION     0.008    0.132     1  15:14       0.265         4.2       0.002
  Y030179              JUNCTION     0.003    0.007     1  15:14       0.096       0.219      -0.002
  Y030217              JUNCTION     0.013    0.200     1  15:17       0.431        6.49       0.010
  Y030306              JUNCTION     0.002    0.017     1  15:14      0.0364       0.524       0.001
  Y030397              JUNCTION     0.002    0.984     1  15:18      0.0623        36.2       0.006
  Y030527              JUNCTION     0.004    0.015     1  15:13       0.121       0.488       0.004
  Y030541              JUNCTION     0.004    0.068     1  15:14       0.125        1.56       0.065
  Y030542              JUNCTION     0.003    0.007     1  05:06      0.0847        0.21       0.158
  Y030543              JUNCTION     0.003    0.175     1  15:14       0.102        7.59       0.001
  Y030548              JUNCTION     0.003    0.165     1  11:59      0.0901        5.01       0.046
  Y030582              JUNCTION     0.002    0.268     1  15:14       0.072        12.7       0.000
  Y030583              JUNCTION     0.004    0.025     1  17:06        0.11       0.749       0.004
  Y030585              JUNCTION     0.003    0.020     1  15:14      0.0915       0.639       0.005
  Y030587              JUNCTION     0.002    0.008     1  05:17      0.0676       0.238       0.004
  Y030588              JUNCTION     0.003    0.076     1  15:14      0.0994        1.57       0.039
  Y030601              JUNCTION     0.008    0.020     1  15:14       0.249       0.619       0.013
  Y030640              JUNCTION     0.002    0.014     1  05:10      0.0458       0.283       0.012
  Y030711              JUNCTION     0.002    0.087     1  05:18      0.0381        2.75       0.029
  Y030712              JUNCTION     0.008    0.013     1  15:05       0.247       0.389       0.223
  Y030713              JUNCTION     0.003    0.064     1  15:14      0.0801        1.53       0.203
  Y030795              JUNCTION     0.002    0.166     1  17:11      0.0703        7.85       0.002
  Y030796              JUNCTION     0.006    0.056     1  15:06       0.179        1.37       0.001
  Y030797              JUNCTION     0.002    0.010     1  05:10      0.0658      0.0833       1.448
  Y030798              JUNCTION     0.004    0.017     1  15:14       0.137       0.547       0.003
  Y030800              JUNCTION     0.002    0.031     1  05:18      0.0375        1.07      -0.007
  Y030801              JUNCTION     0.002    0.062     1  17:04      0.0689       0.498      -0.011
  Y030963              JUNCTION     0.005    0.055     1  15:14       0.146        1.59       0.008
  Y030969              JUNCTION     0.005    0.005     1  15:14       0.141       0.142       0.267
  Y030971              JUNCTION     0.007    0.014     1  05:08       0.212       0.212      -0.014
  Y030991              JUNCTION     0.005    0.059     1  15:15       0.141        1.89      -0.007
  Y031021              JUNCTION     0.004    0.050     1  15:15       0.127        1.59       0.004
  Y031068              JUNCTION     0.004    0.167     1  15:14       0.128        5.34       0.029
  Y031069              JUNCTION     0.003    0.048     1  17:04      0.0966        0.78       0.005
  Y031121              JUNCTION     0.005    0.259     1  15:14        0.14        8.55       0.002
  Y031141              JUNCTION     0.005    0.222     1  15:16       0.161         7.4       0.004
  Y031142              JUNCTION     0.010    0.010     1  15:14       0.324       0.324       0.002
  Y031148              JUNCTION     0.002    0.031     1  15:14       0.062       0.964      -0.005
  Y031149              JUNCTION     0.004    0.029     1  15:13       0.127       0.913       0.002
  Y031152              JUNCTION     0.007    0.249     1  15:06        0.21          12       0.002
  Y031230              JUNCTION     0.002    0.177     1  15:18      0.0532        1.51      -0.132
  Y031236              JUNCTION     0.001    0.108     1  15:14      0.0263        2.11       0.012
  Y031393              JUNCTION     0.002    0.008     1  14:39       0.059       0.225       0.012
  Y031395              JUNCTION     0.002    0.034     1  05:18      0.0688        1.14       0.010
  Y031417              JUNCTION     0.002    0.018     1  12:01      0.0633       0.549       0.037
  Y031418              JUNCTION     0.005    0.095     1  17:04       0.147        2.55       0.120
  Y031419              JUNCTION     0.004    0.589     1  15:21       0.138        23.4       0.005
  Y031420              JUNCTION     0.003    0.120     1  15:14      0.0866        3.79       0.002
  Y031421              JUNCTION     0.003    0.091     1  05:18      0.0966        2.88       0.007
  Y031535              JUNCTION     0.003    0.061     1  17:04         0.1       0.425       0.009
  Y031537              JUNCTION     0.006    0.046     1  17:04       0.198       0.977       0.007
  Y031544              JUNCTION     0.002    0.012     1  05:09      0.0423       0.366       0.003
  Y031581              JUNCTION     0.002    0.046     1  15:14      0.0696        1.47       0.005
  Y031582              JUNCTION     0.001    0.001     1  05:05      0.0237      0.0243       3.072
  Y031583              JUNCTION     0.009    0.299     1  15:17        0.28        9.94       0.008
  Y031584              JUNCTION     0.010    0.036     1  17:05       0.321       0.322      -0.007
  Y031610              JUNCTION     0.006    0.990     1  15:19       0.188        36.4       0.005
  Y031614              JUNCTION     0.005    0.061     1  17:04       0.171        1.47       0.102
  Y031730              JUNCTION     0.002    0.002     1  05:05      0.0349      0.0349       0.004
  Y031737              JUNCTION     0.003    0.011     1  05:18       0.107       0.318       0.030
  Y031826              JUNCTION     0.006    0.073     1  17:04       0.201        1.79       0.005
  Y031827              JUNCTION     0.006    0.115     1  15:19       0.201        3.75       0.001
  Y031829              JUNCTION     0.010    0.010     1  15:14       0.335       0.336       0.194
  Y031830              JUNCTION     0.003    0.255     1  15:14       0.105        8.41       0.002
  Y031892              JUNCTION     0.002    0.088     1  05:18      0.0356        2.79       0.004
  Y031893              JUNCTION     0.004    0.117     1  15:14       0.131        3.71       0.036
  Y031898              JUNCTION     0.004    0.004     1  15:14       0.109       0.123       0.006
  Y031903              JUNCTION     0.004    0.072     1  15:14       0.133        1.57       0.066
  Y031999              JUNCTION     0.003    0.169     1  14:39      0.0982        7.95       0.004
  Y032107              JUNCTION     0.001    0.807     1  15:19      0.0318        30.5       0.011
  Y032134              JUNCTION     0.002    0.585     1  15:21      0.0433        23.2       0.008
  Y032136              JUNCTION     0.006    0.014     1  05:10         0.2       0.281       0.264
  Y032230              JUNCTION     0.003    0.014     1  15:14       0.102       0.435       0.003
  Y032232              JUNCTION     0.003    0.006     1  05:05         0.1       0.185       0.001
  Y032273              JUNCTION     0.006    0.018     1  05:11       0.204       0.484      -0.097
  Y032275              JUNCTION     0.005    0.020     1  15:14       0.168       0.661       0.015
  Y032276              JUNCTION     0.006    0.134     1  05:07       0.187        6.28       0.003
  Y032277              JUNCTION     0.004    0.015     1  05:18       0.119       0.436       0.137
  Y032283              JUNCTION     0.001    0.017     1  15:14      0.0353       0.573       0.003
  Y032285              JUNCTION     0.002    0.009     1  05:13       0.069       0.216       0.019
  Y032311              JUNCTION     0.003    0.164     1  14:09       0.107        7.78       0.002
  Y032312              JUNCTION     0.006    0.217     1  15:16       0.173        7.23       0.002
  Y032313              JUNCTION     0.001    0.168     1  15:14      0.0179        5.36       0.001
  Y032314              JUNCTION     0.002    0.010     1  15:14      0.0697       0.297       0.008
  Y032315              JUNCTION     0.005    0.021     1  05:21       0.144       0.516       0.012
  Y032357              JUNCTION     0.006    0.600     1  15:21       0.197        23.8       0.007
  Y032358              JUNCTION     0.015    0.015     1  15:14       0.491       0.491       0.411
  Y032363              JUNCTION     0.009    0.091     1  17:04       0.279         2.4       0.052
  Y032374              JUNCTION     0.005    0.037     1  17:04        0.15        1.09       0.640
  Y032375              JUNCTION     0.004    0.066     1  17:04       0.127        1.59       0.025
  Y032607              JUNCTION     0.004    0.994     1  15:18       0.128        36.6       0.004
  Y032608              JUNCTION     0.003    0.028     1  05:10      0.0802       0.661       0.005
  Y032611              JUNCTION     0.002    0.290     1  15:14      0.0753        9.54       0.002
  Y032701              JUNCTION     0.006    0.011     1  17:01       0.184       0.184      -0.002
  Y032719              JUNCTION     0.006    0.595     1  15:21       0.192        23.6       0.005
  Y032731              JUNCTION     0.008    0.243     1  15:15       0.252        8.06       0.006
  Y032741              JUNCTION     0.007    0.212     1  15:17        0.23        7.06       0.000
  Y032747              JUNCTION     0.003    0.078     1  15:17      0.0846        2.41       0.072
  Y032760              JUNCTION     0.001    0.035     1  05:18      0.0252        1.16       0.005
  Y032829              JUNCTION     0.002    0.019     1  15:14      0.0594       0.591       0.001
  Y032839              JUNCTION     0.004    0.055     1  17:04       0.131         1.3       0.209
  Y032897              JUNCTION     0.005    0.012     1  15:14       0.147       0.372       0.329
  Y032936              JUNCTION     0.002    0.003     1  05:05      0.0499      0.0739       0.169
  Y032937              JUNCTION     0.005    0.126     1  05:05        0.16         2.1       0.010
  Y032938              JUNCTION     0.005    0.133     1  05:16       0.141        4.86       0.015
  Y033129              JUNCTION     0.002    0.021     1  17:02      0.0591       0.063      -0.054
  Y033131              JUNCTION     0.010    0.059     1  15:14       0.338        1.88       0.009
  Y033133              JUNCTION     0.001    0.070     1  05:18       0.025        2.28       0.088
  Y033153              JUNCTION     0.005    0.052     1  15:14       0.161        1.78       0.015
  Y033202              JUNCTION     0.002    0.058     1  15:13      0.0489        1.96       0.014
  Y033204              JUNCTION     0.003    0.236     1  15:14      0.0992        7.85      -0.007
  Y033275              JUNCTION     0.002    0.044     1  05:22      0.0506        1.07      -0.000
  Y033307              JUNCTION     0.001    0.001     1  05:18      0.0417      0.0417       0.001
  Y033332              JUNCTION     0.002    0.006     1  05:23      0.0664        0.17       0.004
  Y033333              JUNCTION     0.013    0.261     1  15:13       0.413        12.4       0.007
  Y033338              JUNCTION     0.011    0.013     1  15:14       0.351       0.418       0.037
  Y033431              JUNCTION     0.001    0.019     1  17:06      0.0397       0.564       0.000
  Y033479              JUNCTION     0.003    0.104     1  15:19      0.0842        3.38       0.010
  Y033523              JUNCTION     0.011    0.084     1  17:04       0.344        2.13       0.039
  Y033526              JUNCTION     0.003    0.287     1  15:14       0.104        9.46       0.001
  Y033528              JUNCTION     0.001    0.011     1  15:14      0.0356       0.333       0.004
  Y033578              JUNCTION     0.005    0.123     1  15:17       0.157       0.885       0.003
  Y033580              JUNCTION     0.002    0.175     1  11:57      0.0757        5.12      -0.018
  Y033666              JUNCTION     0.001    0.189     1  15:14      0.0341        6.78       0.030
  Y033681              JUNCTION     0.001    0.020     1  05:22      0.0186        0.59      -0.005
  Y033682              JUNCTION     0.002    0.069     1  05:18      0.0471        2.26       0.077
  Y033683              JUNCTION     0.007    0.007     1  15:14       0.228       0.228       0.013
  Y033721              JUNCTION     0.005    0.017     1  15:14       0.144       0.532       0.012
[...]
  Cond4432                1.00   0.23  0.00  0.00  0.77  0.00  0.00  0.00  0.39  0.00
  Cond4433                1.00   0.23  0.00  0.00  0.77  0.00  0.00  0.00  0.00  0.00
  Cond4434                1.00   0.23  0.00  0.00  0.77  0.00  0.00  0.00  0.00  0.00
  Cond4436                1.00   0.23  0.00  0.00  0.05  0.73  0.00  0.00  0.29  0.00
  Cond4437                1.00   0.23  0.00  0.00  0.01  0.76  0.00  0.00  0.00  0.00
  Cond4438                1.00   0.23  0.00  0.00  0.76  0.02  0.00  0.00  0.77  0.00
  Cond4446                1.00   0.23  0.00  0.00  0.01  0.76  0.00  0.00  0.00  0.00
  Cond4447                1.00   0.23  0.00  0.00  0.76  0.02  0.00  0.00  0.76  0.00
  Cond4448                1.00   0.23  0.00  0.00  0.77  0.00  0.00  0.00  0.64  0.00
  Cond4449                1.00   0.23  0.01  0.00  0.76  0.00  0.00  0.00  0.76  0.00
  Cond4501                1.00   0.23  0.00  0.00  0.77  0.00  0.00  0.00  0.01  0.00
  Cond4502                1.00   0.23  0.00  0.00  0.77  0.00  0.00  0.00  0.01  0.00
  Cond4503                1.00   0.23  0.00  0.00  0.77  0.00  0.00  0.00  0.02  0.00
  Cond4504                1.00   0.23  0.00  0.00  0.77  0.00  0.00  0.00  0.02  0.00
  Cond4505                1.00   0.23  0.00  0.00  0.77  0.00  0.00  0.00  0.04  0.00
  Cond4506                1.00   0.23  0.00  0.00  0.77  0.00  0.00  0.00  0.48  0.00
  Cond4507                1.00   0.23  0.00  0.00  0.77  0.00  0.00  0.00  0.02  0.00
  Cond4508                1.00   0.23  0.00  0.00  0.77  0.00  0.00  0.00  0.39  0.00
  Cond4509                1.00   0.23  0.00  0.00  0.77  0.00  0.00  0.00  0.01  0.00
  Cond4510                1.00   0.23  0.00  0.00  0.77  0.00  0.00  0.00  0.00  0.00
  Cond4511                1.00   0.23  0.00  0.00  0.77  0.00  0.00  0.00  0.45  0.00
  Cond4512                1.00   0.23  0.00  0.00  0.77  0.00  0.00  0.00  0.00  0.00
  Cond4513                1.00   0.23  0.00  0.00  0.77  0.00  0.00  0.00  0.52  0.00
  Cond4514                1.00   0.23  0.00  0.00  0.77  0.00  0.00  0.00  0.02  0.00
  Cond4515                1.00   0.23  0.00  0.00  0.77  0.00  0.00  0.00  0.01  0.00
  Cond4538                1.00   0.23  0.00  0.00  0.77  0.00  0.00  0.00  0.46  0.00
  Cond4566                1.00   0.23  0.00  0.00  0.77  0.00  0.00  0.00  0.02  0.00
  Cond4612                1.00   0.23  0.00  0.00  0.77  0.00  0.00  0.00  0.01  0.00
  Cond4613                1.00   0.23  0.00  0.00  0.77  0.00  0.00  0.00  0.03  0.00
  Cond5001                1.00   0.23  0.00  0.00  0.37  0.40  0.00  0.00  0.00  0.00
  Cond5073                1.00   0.23  0.00  0.00  0.77  0.00  0.00  0.00  0.45  0.00
  Cond2726                1.00   0.23  0.00  0.00  0.01  0.76  0.00  0.00  0.22  0.00
  
  
  *************************
  Conduit Surcharge Summary
  *************************
  
  ----------------------------------------------------------------------------
                                                           Hours        Hours 
                         --------- Hours Full --------   Above Full   Capacity
  Conduit                Both Ends  Upstream  Dnstream   Normal Flow   Limited
  ----------------------------------------------------------------------------
  Cond1520                    5.96      5.96      7.10      0.01         0.01
  Cond1525                    3.14      3.14      5.78      0.01         0.01
  Cond1526                    3.27      3.27      6.08      5.60         0.01
  Cond1527                    5.39      5.39      5.87      0.01         0.01
  Cond1614                    0.01      3.27      0.01      6.17         0.01
  Cond1631                    9.68      9.68     10.77      0.01         0.01
  Cond1632                    6.00      6.00      7.74      0.01         0.01
  Cond1650                    0.01      0.01      3.06      0.01         0.01
  Cond1653                    8.46      8.46      8.74      0.01         0.01
  Cond1654                    5.76      5.76      7.14      0.01         0.01
  Cond1655                    0.01      0.01      0.25      0.01         0.01
  Cond1656                    5.75      5.75      7.16      0.01         0.01
  Cond1657                    0.95      3.35      0.95      8.05         0.95
  Cond1662                    0.01      0.01      0.01      4.25         0.01
  Cond1664                    5.95      5.95     11.65      0.01         0.01
  Cond1679                    0.01      0.01      0.01      0.83         0.01
  Cond1704                    0.01      0.01      4.18      0.01         0.01
  Cond1715                    5.96      5.96      6.34      0.01         0.01
  Cond1728                    7.02      7.02     11.64      0.01         0.01
  Cond1734                    5.90      5.90      7.74      0.01         0.01
  Cond1735                    8.50      8.50      8.63      0.01         0.01
  Cond1743                    0.01      0.01      0.80      0.01         0.01
  Cond1795                    5.14      5.14      5.51      0.01         0.01
  Cond1836                    0.01      0.01      0.01      6.57         0.01
  Cond1857                    4.92      4.92      5.14      0.01         0.01
  Cond1866                    8.88      8.88     37.23      0.01         0.01
  Cond1867                    7.48      7.48      9.19      0.01         0.01
  Cond1868                    9.56      9.56      9.80      0.01         0.01
  Cond1870                    6.96      7.14      6.96     16.27         6.86
  Cond1893                    0.01      0.01      0.25      0.01         0.01
  Cond1894                    5.81      5.81      5.90      0.01         0.01
  Cond1896                    6.98      6.98      7.10      0.01         0.19
  Cond1898                    6.10      6.10      7.28      0.01         0.01
  Cond1899                    8.81      8.81      9.21      0.01         0.01
  Cond1908                    0.01      0.01     11.08      0.01         0.01
  Cond1925                    7.10      7.10      7.18      0.01         0.77
  Cond1958                    7.54      7.54     14.85      0.26         0.01
  Cond1959                    0.01      0.01      0.42      0.01         0.01
  Cond1960                    8.52      8.52     37.23      0.01         0.01
  Cond1992                    9.82      9.82      9.85      5.30         4.95
  Cond1993                    0.01      0.01      0.01      4.98         0.01
  Cond1994                    6.99      6.99      7.71      0.01         0.01
  Cond1995                    6.61      6.61      6.98      0.01         0.01
  Cond1997                    6.00      6.00      6.55      0.01         0.01
  Cond1998                    5.16      5.16      7.46      0.01         0.01
  Cond2072                    0.42      0.42      0.55      0.01         0.01
  Cond2073                    8.66      8.66      9.23      0.01         0.01
  Cond2079                    0.01      0.01     10.61      0.01         0.01
  Cond2093                    0.01      0.01      0.66      0.01         0.01
  Cond2113                    8.93      8.95      8.93     17.15         8.76
  Cond2114                    5.97      5.97      5.99      0.01         1.28
  Cond2132                    0.01      0.01      0.01      5.56         0.01
  Cond2141                    6.19      6.41      6.19     17.90         6.19
  Cond2142                    3.92      3.92      4.64      0.01         0.01
  Cond2144                    8.55      8.55      9.23      0.01         0.01
  Cond2145                    7.62      7.62      9.30      0.01         0.01
  Cond2148                    9.77      9.77     10.32      8.88         8.88
  Cond2179                    9.57      9.63      9.57     16.38         3.08
  Cond2212                    5.87      5.87     15.25      0.01         0.01
  Cond2214                    6.36      6.36      6.55      0.01         0.01
  Cond2227                    7.38      7.38      8.46      0.01         0.01
  Cond2228                    6.03      6.03      8.80      0.01         0.01
  Cond2229                    0.15      0.15      0.25      0.01         0.01
  Cond2230                    6.52      6.52      6.93      0.01         0.01
  Cond2231                    5.12      7.00      5.12     13.61         5.12
  Cond2288                    4.83      4.83      5.16      0.01         0.01
  Cond2290                    6.69      6.69      7.73      0.01         0.01
  Cond2294                    4.64      4.64      4.92      0.01         0.01
  Cond2295                    7.40      7.40      7.83      0.01         0.01
  Cond2296                    7.73      7.73     32.31      0.01         0.01
  Cond2298                    2.83      2.83      4.83      0.01         0.01
  Cond2318                    0.01      0.01      0.01      7.17         0.01
  Cond2321                    5.82      5.82      5.92      0.01         0.01
  Cond2358                    7.48      7.48     12.63      0.01         0.01
  Cond2392                    6.31      6.31      8.31      0.01         0.01
  Cond2393                    0.01      0.01      4.13      0.01         0.01
  Cond2396                    6.70      6.70     13.97      0.01         0.01
  Cond2397                    0.01      0.71      0.01      5.47         0.01
  Cond2441                    7.00      7.53      7.00     20.54         7.00
  Cond2442                    6.52      6.52      6.94      0.01         0.01
  Cond2452                    8.88      8.88      9.21      0.01         0.01
  Cond2491                    9.87      9.87     11.59      8.68         0.01
  Cond2533                    0.01      2.01      0.01     12.15         0.01
  Cond2542                    0.15      0.25      0.15      5.83         0.15
  Cond2544                    6.08      6.08      7.71      0.01         0.01
  Cond2593                    6.08      6.08      7.38      0.01         0.01
  Cond2595                    7.16      7.16      7.40      0.01         0.01
  Cond2596                    8.86      8.86      9.23      0.01         0.01
  Cond2597                   12.63     12.63     14.85      0.01         0.01
  Cond2604                    6.34      6.34      6.41      0.01         0.80
  Cond2611                    9.82      9.82      9.82      9.27         6.10
  Cond2612                    6.32      6.32      6.41      5.79         5.73
  Cond2613                    8.87      8.87      9.69      0.01         0.01
  Cond2614                    7.14      7.14      7.15      6.22         4.45
  Cond2615                    5.60      5.60      7.21      0.01         0.01
  Cond2627                    1.89      1.89      2.01      1.04         1.04
  Cond2629                    5.95      5.95      7.16      0.01         0.01
  Cond2633                    8.46      8.46     20.08      0.01         0.01
  Cond2635                   11.64     11.65     11.64      0.95         3.92
  Cond2636                    6.31      6.31      6.66      0.01         0.01
  Cond2727                    7.18      7.18      7.94      0.01         0.01
  Cond2784                    5.71      5.71      6.14      0.01         0.01
  Cond2801                    0.25      0.25      1.89      0.01         0.01
  Cond2807                    3.35      5.38      3.35      8.11         3.35
  Cond2814                    6.32      6.44      6.32     17.40         6.32
  Cond2816                    0.01      0.01      1.39      0.01         0.01
  Cond2826                    6.36      6.36      6.45      0.01         0.36
  Cond2851                    0.01      0.01      8.16      0.01         0.01
  Cond2854                    5.92      5.92      6.30      0.01         0.01
  Cond2890                    7.73      7.73      9.19      0.01         0.01
  Cond2891                    8.82      8.82      9.64      0.01         0.01
  Cond2892                    5.76      5.78      5.76     15.09         4.93
  Cond2951                    0.39      0.39      6.16      0.01         0.01
  Cond2953                    8.38      8.38      9.37      0.01         0.01
  Cond2954                   14.85     14.85     37.41      0.01         0.01
  Cond2956                    7.80      7.99      7.80     21.62         7.80
  Cond2974                   12.49     12.49     13.55      6.80         6.68
  Cond2976                    5.38      6.01      5.38      7.88         5.38
  Cond3006                    5.90      5.90      6.08      0.01         1.96
  Cond3007                    5.90      5.90      7.61      0.01         0.01
  Cond3025                    3.06      3.06      6.10      0.01         0.01
  Cond3026                    0.01     13.05      0.01     15.42         0.01
  Cond3085                    5.51      5.51      5.71      0.01         0.01
  Cond3126                    8.31      8.31      8.46      0.81         2.01
  Cond3129                    0.01      0.01      0.09      0.01         0.01
  Cond3131                    7.15      7.15      8.34      0.01         0.01
  Cond3150                    4.13      4.13      6.03      0.01         0.01
  Cond3185                    8.85      8.87      8.86      8.82         8.46
  Cond3189                    5.90      5.90      8.87      0.01         0.01
  Cond3190                   15.25     15.25     37.41      0.01         0.01
  Cond3191                    7.10      7.10      7.14      4.79         3.64
  Cond3205                    0.01      0.01      0.66      0.01         0.01
  Cond3212                    1.98      1.98      3.41      0.01         0.01
  Cond3233                    6.56      6.56      7.95      0.01         0.01
  Cond3237                    6.03      6.03      6.58      0.01         0.01
  Cond3242                    8.52      8.52      8.52      0.01         3.94
  Cond3297                    6.45      6.45      7.99      0.01         0.01
  Cond3298                    7.94      7.94      8.46      0.01         0.01
  Cond3315                    3.36      3.41      3.36     14.97         3.30
  Cond3316                    0.01      0.01      0.01     21.28         0.01
  Cond3317                    8.57      8.57      8.96      0.01         0.01
  Cond3359                    6.16      6.16      6.84      0.01         0.01
  Cond3362                    6.99      6.99      6.99      0.01         3.94
  Cond3363                    8.81      8.81      8.96      0.01         0.01
  Cond3364                    7.40      7.40      7.78      0.01         0.01
  Cond3440                    7.10      7.10      8.38      0.01         0.01
  Cond3455                    9.80      9.80      9.82      9.17         8.56
  Cond3474                    0.01      0.01      0.01      5.66         0.01
  Cond3476                    0.01      0.01      0.01      0.17         0.01
  Cond3497                    0.01      0.01      0.01     15.13         0.01
  Cond3525                    0.01      0.01      4.18      0.01         0.01
  Cond3544                    9.79      9.79     10.77      6.96         0.01
  Cond3577                    5.90      5.90      7.21      0.01         0.01
  Cond3585                    8.62      8.63      8.63      8.52         8.20
  Cond3586                    6.14      6.14      6.61      0.01         0.01
  Cond3596                    5.94      5.94      5.97      0.01         2.00
  Cond3597                    0.71      0.95      0.71      5.29         0.69
  Cond3598                    6.71      6.71      6.84      0.01         0.07
  Cond3628                    8.76      8.76      9.56      0.01         0.01
  Cond3664                    0.01      0.01      1.98      0.01         0.01
  Cond3665                    5.71      5.71      5.81      0.01         0.01
  Cond3666                    8.63      8.63      8.95      0.01         0.01
  Cond3733                    3.14      3.36      3.14     15.36         3.07
  Cond3734                    6.66      6.66      6.66      0.01         3.20
  Cond3745                    8.34      8.34     15.12      0.01         0.01
  Cond3748                    0.01      0.01      0.38      0.01         0.01
  Cond3750                    0.01      0.01      0.01      5.61         0.01
  Cond3751                    8.46      8.46      8.55      0.01         0.32
  Cond3760                    6.30      6.30      6.66      0.01         0.01
  Cond3796                    6.44      6.86      6.44     21.31         6.44
  Cond3797                    9.19      9.19      9.19      1.57         3.84
  Cond3798                    7.83      7.83      8.38      0.01         0.01
  Cond3897                    0.01      0.01      6.03      0.01         0.01
  Cond3956                    6.93      6.93      8.50      0.01         0.01
  Cond3986                    6.99      6.99      6.99      0.01         3.67
  Cond3987                    6.71      6.71      7.78      0.01         0.01
  Cond3999                    6.01      6.19      6.01      7.74         6.01
  Cond4005                    1.39      1.39      4.18      0.01         0.01
  Cond4023                    0.01      0.01      4.18      0.01         0.01
  Cond4183                   14.78     14.78     15.25      7.20         7.21
  Cond4184                   13.55     13.55     13.96      6.87         6.39
  Cond4185                   13.96     13.96     14.78      7.02         6.98
  Cond4187                    6.86      6.96      6.86     16.50         6.85
  Cond4336                    0.01      0.01     14.85      0.01         0.01
  Cond4338                    0.01      0.01     14.85      0.01         0.01
  Cond4354                    8.73      8.74      8.73      9.27         4.95
  Cond4355                    8.73      8.73      8.85      0.01         0.01
  Cond4356                    8.85      8.85      8.89      0.01         1.17
  Cond4357                    8.89      8.89      8.95      0.01         0.02
  Cond4421                    0.01      0.01      0.01      3.59         0.01
  Cond4429                    0.01      0.01      0.01      3.90         0.01
  Cond4433                    0.01      0.01      0.01      7.11         0.01
  Cond4434                    0.01      0.01      0.01      4.00         0.01
  Cond4438                    0.01      0.01      6.82      0.01         0.01
  Cond4501                    9.77      9.79      9.77     12.05         9.77
  Cond4507                    9.78      9.79      9.84      4.77         4.55
  Cond4508                    9.63      9.64      9.75      0.01         0.01
  Cond4509                   10.30     10.30     11.01      0.01         0.27
  Cond4510                   10.77     11.01     10.77     15.61         8.70
  Cond4511                    9.68      9.68      9.94      0.01         0.01
  Cond4512                    9.61      9.61      9.68      0.01         0.01
  Cond4513                    9.30      9.30      9.61      0.01         0.01
  Cond4514                    9.84      9.84     10.30      0.01         0.01
  Cond4515                    9.74      9.75      9.79      0.01         0.86
  Cond4538                    2.41      2.41      5.35      0.01         0.01
  Cond4566                    6.45      6.45      6.70      0.01         0.01
  Cond4612                    6.21      6.21      6.49      0.01         0.14
  Cond4613                    5.60      5.60      6.21      0.01         0.01
  Cond5073                    7.80      7.80     12.49      0.01         0.01
  

  Analysis begun on:  Thu Jun 20 21:43:17 2024
  Analysis ended on:  Thu Jun 20 21:43:46 2024
  Total elapsed time: 00:00:29