
  EPA STORM WATER MANAGEMENT MODEL - VERSION 5.2 (Build 5.2.4)
  PYSWMM TOOLKIT API - VERSION v1.0 (2023-11-27)
  ------------------------------------------------------------

  WARNING 04: minimum elevation drop used for Conduit Cond1870
  WARNING 04: minimum elevation drop used for Conduit Cond2113
  WARNING 04: minimum elevation drop used for Conduit Cond2141
  WARNING 04: minimum elevation drop used for Conduit Cond2179
  WARNING 04: minimum elevation drop used for Conduit Cond2441
  WARNING 04: minimum elevation drop used for Conduit Cond2635
  WARNING 04: minimum elevation drop used for Conduit Cond2814
  WARNING 04: minimum elevation drop used for Conduit Cond2892
  WARNING 04: minimum elevation drop used for Conduit Cond2956
  WARNING 04: minimum elevation drop used for Conduit Cond3242
  WARNING 04: minimum elevation drop used for Conduit Cond3315
  WARNING 04: minimum elevation drop used for Conduit Cond3316
  WARNING 04: minimum elevation drop used for Conduit Cond3362
  WARNING 04: minimum elevation drop used for Conduit Cond3497
  WARNING 04: minimum elevation drop used for Conduit Cond3733
  WARNING 04: minimum elevation drop used for Conduit Cond3734
  WARNING 04: minimum elevation drop used for Conduit Cond3796
  WARNING 04: minimum elevation drop used for Conduit Cond3797
  WARNING 04: minimum elevation drop used for Conduit Cond3986
  WARNING 04: minimum elevation drop used for Conduit Cond4187
  WARNING 04: minimum elevation drop used for Conduit Cond4354
  WARNING 04: minimum elevation drop used for Conduit Cond4510
  
  ****************
  Analysis Options
  ****************
  Flow Units ............... CMS
  Process Models:
    Rainfall/Runoff ........ YES
    RDII ................... NO
    Snowmelt ............... NO
    Groundwater ............ NO
    Flow Routing ........... YES
    Ponding Allowed ........ YES
    Water Quality .......... NO
  Infiltration Method ...... HORTON
  Flow Routing Method ...... DYNWAVE
  Surcharge Method ......... EXTRAN
  Starting Date ............ 07/31/2023 00:00:00
  Ending Date .............. 08/01/2023 23:00:00
  Antecedent Dry Days ...... 0.0
  Report Time Step ......... 01:00:00
  Wet Time Step ............ 00:01:00
  Dry Time Step ............ 00:01:00
  Routing Time Step ........ 5.00 sec
  Variable Time Step ....... YES
  Maximum Trials ........... 8
  Number of Threads ........ 1
  Head Tolerance ........... 0.001500 m
  
  
  **************************        Volume         Depth
  Runoff Quantity Continuity     hectare-m            mm
  **************************     ---------       -------
  Total Precipitation ......         3.358       105.600
  Evaporation Loss .........         0.000         0.000
  Infiltration Loss ........         0.337        10.602
  Surface Runoff ...........         2.769        87.102
  Final Storage ............         0.251         7.899
  Continuity Error (%) .....        -0.004
  
  
  **************************        Volume        Volume
  Flow Routing Continuity        hectare-m      10^6 ltr
  **************************     ---------     ---------
  Dry Weather Inflow .......         0.000         0.000
  Wet Weather Inflow .......         2.769        27.695
  Groundwater Inflow .......         0.000         0.000
  RDII Inflow ..............         0.000         0.000
  External Inflow ..........         0.000         0.000
  External Outflow .........         2.759        27.586
  Flooding Loss ............         0.005         0.049
  Evaporation Loss .........         0.000         0.000
  Exfiltration Loss ........         0.000         0.000
  Initial Stored Volume ....         0.000         0.000
  Final Stored Volume ......         0.008         0.082
  Continuity Error (%) .....        -0.077
  
  
  *************************
  Highest Continuity Errors
  *************************
  Node Y031582 (3.92%)
  Node Y034022 (3.06%)
  Node Y037063 (1.16%)
  
  
  ***************************
  Time-Step Critical Elements
  ***************************
  Link Cond3150 (82.15%)
  Link Cond2954 (6.07%)
  Link Cond2611 (4.58%)
  Link Cond1653 (3.06%)
  Link Cond1632 (1.31%)
  
  
  ********************************
  Highest Flow Instability Indexes
  ********************************
  Link Cond4436 (52)
  Link Cond1653 (16)
  Link Cond2954 (14)
  Link Cond3150 (13)
  Link Cond2611 (12)
  
  
  *********************************
  Most Frequent Nonconverging Nodes
  *********************************
  Node PSK (4.80%)
  Node Y036038 (0.53%)
  Node Y031068 (0.43%)
  Node Y031829 (0.41%)
  Node Y037549 (0.34%)
  
  
  *************************
  Routing Time Step Summary
  *************************
  Minimum Time Step           :     0.50 sec
  Average Time Step           :     0.89 sec
  Maximum Time Step           :     5.00 sec
  % of Time in Steady State   :     0.00
  Average Iterations per Step :     2.62
  % of Steps Not Converging   :     4.80
  Time Step Frequencies       :
      5.000 -  3.155 sec      :     1.65 %
      3.155 -  1.991 sec      :     0.83 %
      1.991 -  1.256 sec      :     6.56 %
      1.256 -  0.792 sec      :    40.48 %
      0.792 -  0.500 sec      :    50.48 %
  
  
  ***************************
  Subcatchment Runoff Summary
  ***************************
  
  ------------------------------------------------------------------------------------------------------------------------------
                            Total      Total      Total      Total     Imperv       Perv      Total       Total     Peak  Runoff
                           Precip      Runon       Evap      Infil     Runoff     Runoff     Runoff      Runoff   Runoff   Coeff
  Subcatchment                 mm         mm         mm         mm         mm         mm         mm    10^6 ltr      CMS
  ------------------------------------------------------------------------------------------------------------------------------
  sub1                     105.60       0.00       0.00      10.47      87.40       0.10      87.50        0.18     0.01   0.829
  sub2                     105.60       0.00       0.00      10.49      87.12       0.07      87.20        0.12     0.00   0.826
  sub3                     105.60       0.00       0.00      10.47      87.31       0.09      87.39        0.10     0.00   0.828
  sub4                     105.60       0.00       0.00      10.47      87.34       0.09      87.42        0.10     0.00   0.828
  sub5                     105.60       0.00       0.00      10.49      87.09       0.07      87.16        0.11     0.00   0.825
  sub6                     105.60       0.00       0.00      10.49      87.12       0.07      87.20        0.11     0.00   0.826
  sub7                     105.60       0.00       0.00      10.48      87.21       0.08      87.29        0.13     0.00   0.827
  sub8                     105.60       0.00       0.00      10.48      87.27       0.08      87.35        0.18     0.01   0.827
  sub9                     105.60       0.00       0.00      10.47      87.39       0.09      87.48        0.09     0.00   0.828
  sub10                    105.60       0.00       0.00      10.49      87.01       0.07      87.07        0.16     0.00   0.825
  sub11                    105.60       0.00       0.00      10.49      87.04       0.07      87.11        0.20     0.01   0.825
  sub12                    105.60       0.00       0.00      10.49      87.03       0.07      87.10        0.21     0.01   0.825
  sub13                    105.60       0.00       0.00      10.49      86.97       0.07      87.03        0.21     0.01   0.824
  sub14                    105.60       0.00       0.00      10.47      87.31       0.09      87.40        0.14     0.00   0.828
  sub15                    105.60       0.00       0.00      10.48      87.29       0.09      87.37        0.14     0.00   0.827
  sub16                    105.60       0.00       0.00      10.49      87.06       0.07      87.13        0.20     0.01   0.825
  sub17                    105.60       0.00       0.00      10.50      86.87       0.06      86.93        0.15     0.00   0.823
  sub18                    105.60       0.00       0.00      10.47      87.33       0.09      87.41        0.11     0.00   0.828
  sub19                    105.60       0.00       0.00      10.47      87.37       0.09      87.46        0.06     0.00   0.828
  sub20                    105.60       0.00       0.00      10.47      87.39       0.09      87.48        0.11     0.00   0.828
  sub21                    105.60       0.00       0.00      10.49      86.97       0.07      87.04        0.25     0.01   0.824
  sub22                    105.60       0.00       0.00      10.51      86.61       0.05      86.66        0.32     0.01   0.821
  sub23                    105.60       0.00       0.00      10.49      87.05       0.07      87.12        0.12     0.00   0.825
  sub24                    105.60       0.00       0.00      10.52      86.14       0.04      86.18        0.39     0.01   0.816
  sub25                    105.60       0.00       0.00      10.47      87.31       0.09      87.40        0.10     0.00   0.828
  sub26                    105.60       0.00       0.00      10.39      87.75       0.18      87.93        0.01     0.00   0.833
  sub27                    105.60       0.00       0.00      10.46      87.43       0.10      87.53        0.10     0.00   0.829
  sub28                    105.60       0.00       0.00      10.48      87.19       0.08      87.27        0.09     0.00   0.826
  sub29                    105.60       0.00       0.00      10.48      87.26       0.08      87.34        0.14     0.00   0.827
  sub30                    105.60       0.00       0.00      10.50      86.91       0.06      86.97        0.30     0.01   0.824
  sub31                    105.60       0.00       0.00      10.49      87.01       0.07      87.08        0.15     0.00   0.825
  sub32                    105.60       0.00       0.00      10.47      87.34       0.09      87.43        0.10     0.00   0.828
  sub33                    105.60       0.00       0.00      10.51      86.58       0.05      86.63        0.36     0.01   0.820
  sub34                    105.60       0.00       0.00      10.50      86.76       0.06      86.81        0.14     0.00   0.822
  sub35                    105.60       0.00       0.00      10.46      87.46       0.10      87.56        0.07     0.00   0.829
  sub36                    105.60       0.00       0.00      10.50      86.82       0.06      86.88        0.23     0.01   0.823
  sub37                    105.60       0.00       0.00      10.47      87.33       0.09      87.41        0.09     0.00   0.828
  sub38                    105.60       0.00       0.00      10.49      87.10       0.07      87.17        0.15     0.00   0.825
  sub39                    105.60       0.00       0.00      10.49      86.99       0.07      87.06        0.20     0.01   0.824
  sub40                    105.60       0.00       0.00      10.48      87.20       0.08      87.28        0.21     0.01   0.827
  sub41                    105.60       0.00       0.00      10.49      87.13       0.07      87.21        0.22     0.01   0.826
  sub42                    105.60       0.00       0.00      10.50      86.87       0.06      86.94        0.21     0.01   0.823
  sub43                    105.60       0.00       0.00      10.51      86.38       0.05      86.43        0.24     0.01   0.818
  sub44                    105.60       0.00       0.00      10.45      87.53       0.11      87.64        0.05     0.00   0.830
  sub45                    105.60       0.00       0.00      10.42      87.66       0.14      87.81        0.04     0.00   0.832
  sub46                    105.60       0.00       0.00      10.49      87.01       0.07      87.08        0.15     0.00   0.825
  sub47                    105.60       0.00       0.00      10.48      87.21       0.08      87.29        0.12     0.00   0.827
  sub48                    105.60       0.00       0.00      10.48      87.21       0.08      87.29        0.19     0.01   0.827
  sub49                    105.60       0.00       0.00      10.45      87.55       0.12      87.67        0.07     0.00   0.830
  sub50                    105.60       0.00       0.00      10.48      87.26       0.08      87.34        0.11     0.00   0.827
  sub51                    105.60       0.00       0.00      12.09      85.67       0.08      85.75        0.13     0.00   0.812
  sub52                    105.60       0.00       0.00      10.62      87.26       0.10      87.35        0.09     0.00   0.827
  sub53                    105.60       0.00       0.00      10.50      86.88       0.06      86.94        0.24     0.01   0.823
  sub54                    105.60       0.00       0.00      10.46      87.46       0.10      87.57        0.10     0.00   0.829
  sub55                    105.60       0.00       0.00      10.40      87.73       0.16      87.89        0.02     0.00   0.832
  sub56                    105.60       0.00       0.00      10.49      87.06       0.07      87.14        0.28     0.01   0.825
  sub57                    105.60       0.00       0.00      10.46      87.43       0.10      87.52        0.13     0.00   0.829
  sub58                    105.60       0.00       0.00      10.49      87.08       0.07      87.16        0.18     0.01   0.825
  sub59                    105.60       0.00       0.00      10.47      87.38       0.09      87.47        0.12     0.00   0.828
  sub60                    105.60       0.00       0.00      10.44      87.59       0.12      87.71        0.05     0.00   0.831
  sub61                    105.60       0.00       0.00      10.48      87.26       0.08      87.34        0.15     0.00   0.827
  sub62                    105.60       0.00       0.00      10.43      87.63       0.13      87.77        0.03     0.00   0.831
  sub63                    105.60       0.00       0.00      10.41      87.70       0.15      87.85        0.02     0.00   0.832
  sub64                    105.60       0.00       0.00      10.46      87.43       0.10      87.53        0.10     0.00   0.829
  sub65                    105.60       0.00       0.00      10.45      87.51       0.11      87.62        0.09     0.00   0.830
  sub66                    105.60       0.00       0.00      10.40      87.72       0.16      87.88        0.03     0.00   0.832
  sub67                    105.60       0.00       0.00      10.43      87.62       0.13      87.75        0.04     0.00   0.831
  sub68                    105.60       0.00       0.00      10.41      87.69       0.15      87.84        0.03     0.00   0.832
  sub69                    105.60       0.00       0.00      10.44      87.59       0.12      87.71        0.04     0.00   0.831
  sub70                    105.60       0.00       0.00      10.45      87.54       0.11      87.66        0.09     0.00   0.830
  sub71                    105.60       0.00       0.00      10.46      87.43       0.10      87.53        0.07     0.00   0.829
  sub72                    105.60       0.00       0.00      10.50      86.68       0.06      86.73        0.13     0.00   0.821
  sub73                    105.60       0.00       0.00      10.49      87.12       0.07      87.20        0.17     0.01   0.826
  sub74                    105.60       0.00       0.00      10.46      87.46       0.10      87.56        0.08     0.00   0.829
  sub75                    105.60       0.00       0.00      10.48      87.25       0.08      87.33        0.13     0.00   0.827
  sub76                    105.60       0.00       0.00      10.45      87.50       0.11      87.61        0.06     0.00   0.830
  sub77                    105.60       0.00       0.00      15.58      82.63       0.10      82.72        0.12     0.00   0.783
  sub78                    105.60       0.00       0.00      10.47      87.38       0.09      87.48        0.07     0.00   0.828
  sub79                    105.60       0.00       0.00      10.47      87.32       0.09      87.41        0.12     0.00   0.828
  sub80                    105.60       0.00       0.00      10.48      87.29       0.09      87.38        0.12     0.00   0.827
  sub81                    105.60       0.00       0.00      10.51      86.49       0.05      86.54        0.36     0.01   0.820
  sub82                    105.60       0.00       0.00      10.45      87.52       0.11      87.63        0.05     0.00   0.830
  sub83                    105.60       0.00       0.00      19.49      78.83       0.08      78.90        0.18     0.01   0.747
  sub84                    105.60       0.00       0.00      10.45      87.50       0.11      87.61        0.08     0.00   0.830
  sub85                    105.60       0.00       0.00      10.46      87.44       0.10      87.54        0.10     0.00   0.829
  sub86                    105.60       0.00       0.00      10.46      87.43       0.10      87.53        0.09     0.00   0.829
  sub87                    105.60       0.00       0.00      10.48      87.28       0.08      87.36        0.16     0.01   0.827
  sub88                    105.60       0.00       0.00      10.48      87.29       0.09      87.37        0.14     0.00   0.827
  sub89                    105.60       0.00       0.00      10.49      87.15       0.08      87.22        0.20     0.01   0.826
  sub90                    105.60       0.00       0.00      10.48      87.28       0.08      87.36        0.13     0.00   0.827
  sub91                    105.60       0.00       0.00      10.46      87.47       0.10      87.58        0.07     0.00   0.829
  sub92                    105.60       0.00       0.00      10.48      87.17       0.08      87.25        0.16     0.01   0.826
  sub93                    105.60       0.00       0.00      10.47      87.35       0.09      87.44        0.07     0.00   0.828
  sub94                    105.60       0.00       0.00      10.47      87.31       0.09      87.39        0.05     0.00   0.828
  sub95                    105.60       0.00       0.00      10.83      86.71       0.07      86.78        0.20     0.01   0.822
  sub96                    105.60       0.00       0.00      10.47      87.35       0.09      87.45        0.08     0.00   0.828
  sub97                    105.60       0.00       0.00      10.46      87.45       0.10      87.55        0.05     0.00   0.829
  sub98                    105.60       0.00       0.00      10.47      87.33       0.09      87.42        0.11     0.00   0.828
  sub99                    105.60       0.00       0.00      10.47      87.36       0.09      87.45        0.09     0.00   0.828
  sub100                   105.60       0.00       0.00      10.48      87.26       0.08      87.35        0.07     0.00   0.827
  sub101                   105.60       0.00       0.00      10.46      87.45       0.10      87.55        0.04     0.00   0.829
  sub102                   105.60       0.00       0.00      10.48      87.21       0.08      87.29        0.11     0.00   0.827
  sub103                   105.60       0.00       0.00      10.49      87.14       0.08      87.21        0.12     0.00   0.826
  sub104                   105.60       0.00       0.00      10.48      87.24       0.08      87.32        0.05     0.00   0.827
  sub105                   105.60       0.00       0.00      10.45      87.54       0.11      87.65        0.05     0.00   0.830
  sub106                   105.60       0.00       0.00      10.51      86.54       0.05      86.59        0.19     0.01   0.820
  sub107                   105.60       0.00       0.00      10.46      87.42       0.10      87.52        0.12     0.00   0.829
  sub108                   105.60       0.00       0.00      10.48      87.28       0.09      87.37        0.16     0.01   0.827
  sub109                   105.60       0.00       0.00      10.48      87.27       0.08      87.36        0.12     0.00   0.827
  sub110                   105.60       0.00       0.00      10.44      87.56       0.12      87.68        0.06     0.00   0.830
  sub111                   105.60       0.00       0.00      10.40      87.73       0.16      87.89        0.03     0.00   0.832
  sub112                   105.60       0.00       0.00      10.44      87.59       0.12      87.71        0.04     0.00   0.831
  sub113                   105.60       0.00       0.00      10.41      87.71       0.16      87.87        0.02     0.00   0.832
  sub114                   105.60       0.00       0.00      10.41      87.71       0.16      87.87        0.02     0.00   0.832
  sub115                   105.60       0.00       0.00      10.43      87.63       0.13      87.76        0.03     0.00   0.831
  sub116                   105.60       0.00       0.00      10.45      87.55       0.11      87.66        0.04     0.00   0.830
  sub117                   105.60       0.00       0.00      10.43      87.61       0.13      87.74        0.04     0.00   0.831
  sub118                   105.60       0.00       0.00      10.45      87.56       0.12      87.67        0.05     0.00   0.830
  sub119                   105.60       0.00       0.00      10.40      87.71       0.16      87.87        0.02     0.00   0.832
  sub120                   105.60       0.00       0.00      10.47      87.37       0.09      87.47        0.06     0.00   0.828
  sub121                   105.60       0.00       0.00      10.47      87.35       0.09      87.44        0.12     0.00   0.828
  sub122                   105.60       0.00       0.00      10.43      87.61       0.13      87.74        0.06     0.00   0.831
  sub123                   105.60       0.00       0.00      10.48      87.17       0.08      87.24        0.18     0.01   0.826
  sub124                   105.60       0.00       0.00      10.38      87.77       0.19      87.96        0.01     0.00   0.833
  sub125                   105.60       0.00       0.00      10.45      87.50       0.11      87.61        0.04     0.00   0.830
  sub126                   105.60       0.00       0.00      10.45      87.55       0.12      87.67        0.02     0.00   0.830
  sub127                   105.60       0.00       0.00      10.39      87.75       0.18      87.93        0.01     0.00   0.833
  sub128                   105.60       0.00       0.00      10.39      87.74       0.17      87.91        0.01     0.00   0.832
  sub129                   105.60       0.00       0.00      10.50      86.84       0.06      86.90        0.14     0.00   0.823
  sub130                   105.60       0.00       0.00      10.41      87.69       0.15      87.84        0.02     0.00   0.832
  sub131                   105.60       0.00       0.00      10.45      87.54       0.11      87.66        0.05     0.00   0.830
  sub132                   105.60       0.00       0.00      10.46      87.43       0.10      87.53        0.05     0.00   0.829
  sub133                   105.60       0.00       0.00      10.39      87.76       0.18      87.94        0.00     0.00   0.833
  sub134                   105.60       0.00       0.00      10.47      87.32       0.09      87.41        0.09     0.00   0.828
  sub135                   105.60       0.00       0.00      10.44      87.58       0.12      87.70        0.04     0.00   0.831
  sub136                   105.60       0.00       0.00      10.46      87.48       0.11      87.59        0.04     0.00   0.829
  sub137                   105.60       0.00       0.00      10.44      87.58       0.12      87.70        0.04     0.00   0.830
  sub138                   105.60       0.00       0.00      10.41      87.70       0.15      87.85        0.02     0.00   0.832
  sub139                   105.60       0.00       0.00      10.45      87.55       0.12      87.67        0.05     0.00   0.830
  sub140                   105.60       0.00       0.00      10.42      87.66       0.14      87.80        0.03     0.00   0.831
  sub141                   105.60       0.00       0.00      10.46      87.44       0.10      87.54        0.08     0.00   0.829
  sub142                   105.60       0.00       0.00      10.47      87.31       0.09      87.40        0.12     0.00   0.828
  sub143                   105.60       0.00       0.00      10.46      87.41       0.10      87.50        0.09     0.00   0.829
  sub144                   105.60       0.00       0.00      10.50      86.74       0.06      86.80        0.14     0.00   0.822
  sub145                   105.60       0.00       0.00      10.50      86.88       0.06      86.94        0.23     0.01   0.823
  sub146                   105.60       0.00       0.00      10.48      87.21       0.08      87.29        0.07     0.00   0.827
  sub147                   105.60       0.00       0.00      10.45      87.51       0.11      87.62        0.05     0.00   0.830
  sub148                   105.60       0.00       0.00      10.44      87.59       0.12      87.71        0.05     0.00   0.831
  sub149                   105.60       0.00       0.00      10.44      87.58       0.12      87.71        0.03     0.00   0.831
  sub150                   105.60       0.00       0.00      10.42      87.66       0.14      87.80        0.03     0.00   0.831
  sub151                   105.60       0.00       0.00      10.46      87.48       0.11      87.59        0.09     0.00   0.829
  sub152                   105.60       0.00       0.00      10.42      87.67       0.14      87.81        0.03     0.00   0.832
  sub153                   105.60       0.00       0.00      10.43      87.62       0.13      87.75        0.03     0.00   0.831
  sub154                   105.60       0.00       0.00      10.46      87.41       0.10      87.51        0.10     0.00   0.829
  sub155                   105.60       0.00       0.00      10.47      87.40       0.10      87.49        0.06     0.00   0.829
  sub156                   105.60       0.00       0.00      10.45      87.50       0.11      87.61        0.07     0.00   0.830
  sub157                   105.60       0.00       0.00      10.44      87.57       0.12      87.69        0.03     0.00   0.830
  sub158                   105.60       0.00       0.00      10.46      87.49       0.11      87.59        0.06     0.00   0.829
  sub159                   105.60       0.00       0.00      10.50      86.82       0.06      86.88        0.19     0.01   0.823
  sub160                   105.60       0.00       0.00      10.48      87.29       0.09      87.38        0.10     0.00   0.827
  sub161                   105.60       0.00       0.00      10.44      87.60       0.13      87.73        0.03     0.00   0.831
  sub162                   105.60       0.00       0.00      10.46      87.44       0.10      87.54        0.05     0.00   0.829
  sub163                   105.60       0.00       0.00      10.48      87.23       0.08      87.31        0.11     0.00   0.827
  sub164                   105.60       0.00       0.00      10.48      87.28       0.09      87.37        0.14     0.00   0.827
  sub165                   105.60       0.00       0.00      10.46      87.48       0.10      87.58        0.06     0.00   0.829
  sub166                   105.60       0.00       0.00      10.48      87.18       0.08      87.26        0.15     0.00   0.826
  sub167                   105.60       0.00       0.00      10.46      87.47       0.10      87.57        0.08     0.00   0.829
  sub168                   105.60       0.00       0.00      10.47      87.36       0.09      87.45        0.07     0.00   0.828
  sub169                   105.60       0.00       0.00      10.47      87.34       0.09      87.43        0.05     0.00   0.828
  sub170                   105.60       0.00       0.00      10.46      87.46       0.10      87.56        0.06     0.00   0.829
  sub171                   105.60       0.00       0.00      10.43      87.63       0.13      87.76        0.02     0.00   0.831
  sub172                   105.60       0.00       0.00      10.47      87.31       0.09      87.40        0.11     0.00   0.828
  sub173                   105.60       0.00       0.00      10.46      87.46       0.10      87.57        0.05     0.00   0.829
  sub174                   105.60       0.00       0.00      10.48      87.28       0.08      87.36        0.13     0.00   0.827
  sub175                   105.60       0.00       0.00      10.46      87.45       0.10      87.56        0.04     0.00   0.829
  sub176                   105.60       0.00       0.00      10.46      87.41       0.10      87.51        0.05     0.00   0.829
  sub177                   105.60       0.00       0.00      10.46      87.41       0.10      87.51        0.07     0.00   0.829
  sub178                   105.60       0.00       0.00      10.46      87.44       0.10      87.54        0.07     0.00   0.829
  sub179                   105.60       0.00       0.00      10.48      87.29       0.09      87.37        0.11     0.00   0.827
  sub180                   105.60       0.00       0.00      10.49      87.04       0.07      87.11        0.15     0.00   0.825
  sub181                   105.60       0.00       0.00      10.43      87.63       0.13      87.77        0.04     0.00   0.831
  sub182                   105.60       0.00       0.00      10.37      87.78       0.19      87.97        0.01     0.00   0.833
  sub183                   105.60       0.00       0.00      10.39      87.75       0.18      87.93        0.01     0.00   0.833
  sub184                   105.60       0.00       0.00      10.43      87.62       0.13      87.75        0.02     0.00   0.831
  sub185                   105.60       0.00       0.00      10.41      87.69       0.15      87.84        0.01     0.00   0.832
  sub186                   105.60       0.00       0.00      10.48      87.16       0.08      87.23        0.09     0.00   0.826
  sub187                   105.60       0.00       0.00      10.51      86.29       0.05      86.34        0.38     0.01   0.818
  sub188                   105.60       0.00       0.00      10.48      87.22       0.08      87.30        0.10     0.00   0.827
  sub189                   105.60       0.00       0.00      10.46      87.41       0.10      87.50        0.05     0.00   0.829
  sub190                   105.60       0.00       0.00      11.18      86.45       0.07      86.52        0.25     0.01   0.819
  sub191                   105.60       0.00       0.00      11.54      86.15       0.08      86.22        0.20     0.01   0.817
  sub192                   105.60       0.00       0.00      10.46      87.43       0.10      87.52        0.09     0.00   0.829
  sub193                   105.60       0.00       0.00      10.46      87.44       0.10      87.54        0.06     0.00   0.829
  sub194                   105.60       0.00       0.00      11.98      85.75       0.08      85.82        0.19     0.01   0.813
  sub195                   105.60       0.00       0.00      10.47      87.36       0.09      87.45        0.11     0.00   0.828
  sub196                   105.60       0.00       0.00      10.52      86.02       0.04      86.06        0.36     0.01   0.815
  sub197                   105.60       0.00       0.00      10.44      87.56       0.12      87.68        0.03     0.00   0.830
  sub198                   105.60       0.00       0.00      10.35      87.81       0.22      88.04        0.00     0.00   0.834
  sub199                   105.60       0.00       0.00      10.48      87.22       0.08      87.30        0.09     0.00   0.827
  sub200                   105.60       0.00       0.00      10.47      87.34       0.09      87.44        0.09     0.00   0.828
  sub201                   105.60       0.00       0.00      10.47      87.35       0.09      87.44        0.14     0.00   0.828
  sub202                   105.60       0.00       0.00      10.43      87.64       0.13      87.77        0.03     0.00   0.831
  sub203                   105.60       0.00       0.00      10.45      87.49       0.11      87.60        0.03     0.00   0.830
  sub204                   105.60       0.00       0.00      10.47      87.34       0.09      87.43        0.06     0.00   0.828
  sub205                   105.60       0.00       0.00      10.45      87.55       0.12      87.67        0.04     0.00   0.830
  sub206                   105.60       0.00       0.00      10.49      86.99       0.07      87.05        0.18     0.01   0.824
  sub207                   105.60       0.00       0.00      10.47      87.33       0.09      87.42        0.03     0.00   0.828
  sub208                   105.60       0.00       0.00      10.43      87.62       0.13      87.75        0.03     0.00   0.831
  sub209                   105.60       0.00       0.00      10.46      87.43       0.10      87.53        0.04     0.00   0.829
  sub210                   105.60       0.00       0.00      10.44      87.58       0.12      87.70        0.03     0.00   0.831
  sub211                   105.60       0.00       0.00      10.49      87.04       0.07      87.11        0.11     0.00   0.825
  sub212                   105.60       0.00       0.00      10.46      87.46       0.10      87.56        0.06     0.00   0.829
  sub213                   105.60       0.00       0.00      10.45      87.52       0.11      87.63        0.05     0.00   0.830
  sub214                   105.60       0.00       0.00      10.46      87.42       0.10      87.52        0.07     0.00   0.829
  sub215                   105.60       0.00       0.00      10.47      87.38       0.09      87.47        0.08     0.00   0.828
  sub216                   105.60       0.00       0.00      10.41      87.69       0.15      87.84        0.03     0.00   0.832
  sub217                   105.60       0.00       0.00      10.41      87.69       0.15      87.83        0.03     0.00   0.832
  sub218                   105.60       0.00       0.00      10.46      87.42       0.10      87.52        0.07     0.00   0.829
  sub219                   105.60       0.00       0.00      10.46      87.46       0.10      87.56        0.11     0.00   0.829
  sub220                   105.60       0.00       0.00      10.40      87.74       0.17      87.90        0.02     0.00   0.832
  sub221                   105.60       0.00       0.00      10.42      87.68       0.15      87.83        0.03     0.00   0.832
  sub222                   105.60       0.00       0.00      10.42      87.66       0.14      87.80        0.04     0.00   0.831
  sub223                   105.60       0.00       0.00      10.49      87.03       0.07      87.10        0.17     0.01   0.825
  sub224                   105.60       0.00       0.00      10.45      87.53       0.11      87.64        0.05     0.00   0.830
  sub225                   105.60       0.00       0.00      10.50      86.86       0.06      86.92        0.18     0.01   0.823
  sub226                   105.60       0.00       0.00      10.49      87.05       0.07      87.13        0.24     0.01   0.825
  sub227                   105.60       0.00       0.00      10.47      87.36       0.09      87.45        0.07     0.00   0.828
  sub228                   105.60       0.00       0.00      10.50      86.78       0.06      86.84        0.31     0.01   0.822
  sub229                   105.60       0.00       0.00      10.49      87.10       0.07      87.17        0.13     0.00   0.826
  sub230                   105.60       0.00       0.00      10.46      87.45       0.10      87.56        0.08     0.00   0.829
  sub231                   105.60       0.00       0.00      10.47      87.35       0.09      87.44        0.08     0.00   0.828
  sub232                   105.60       0.00       0.00      10.41      87.71       0.16      87.86        0.02     0.00   0.832
  sub233                   105.60       0.00       0.00      10.46      87.46       0.10      87.56        0.05     0.00   0.829
  sub234                   105.60       0.00       0.00      10.48      87.23       0.08      87.31        0.12     0.00   0.827
  sub235                   105.60       0.00       0.00      10.46      87.43       0.10      87.53        0.05     0.00   0.829
  sub236                   105.60       0.00       0.00      10.48      87.27       0.08      87.35        0.11     0.00   0.827
  sub237                   105.60       0.00       0.00      10.45      87.55       0.12      87.67        0.03     0.00   0.830
  sub238                   105.60       0.00       0.00      10.47      87.37       0.09      87.46        0.06     0.00   0.828
  sub239                   105.60       0.00       0.00      10.46      87.42       0.10      87.51        0.08     0.00   0.829
  sub240                   105.60       0.00       0.00      10.47      87.37       0.09      87.47        0.07     0.00   0.828
  sub241                   105.60       0.00       0.00      10.47      87.40       0.10      87.49        0.03     0.00   0.829
  sub242                   105.60       0.00       0.00      10.46      87.43       0.10      87.53        0.07     0.00   0.829
  sub243                   105.60       0.00       0.00      10.47      87.40       0.10      87.49        0.10     0.00   0.829
  sub244                   105.60       0.00       0.00      10.45      87.50       0.11      87.61        0.08     0.00   0.830
  sub245                   105.60       0.00       0.00      10.46      87.42       0.10      87.52        0.10     0.00   0.829
  sub246                   105.60       0.00       0.00      10.42      87.68       0.15      87.83        0.04     0.00   0.832
  sub247                   105.60       0.00       0.00      10.51      86.35       0.05      86.40        0.34     0.01   0.818
  sub248                   105.60       0.00       0.00      10.46      87.43       0.10      87.52        0.08     0.00   0.829
  sub249                   105.60       0.00       0.00      10.47      87.37       0.09      87.47        0.05     0.00   0.828
  sub250                   105.60       0.00       0.00      10.44      87.57       0.12      87.69        0.02     0.00   0.830
  sub251                   105.60       0.00       0.00      10.49      87.10       0.07      87.17        0.20     0.01   0.826
  sub252                   105.60       0.00       0.00      10.47      87.30       0.09      87.39        0.13     0.00   0.828
  sub253                   105.60       0.00       0.00      10.49      87.03       0.07      87.10        0.17     0.01   0.825
  sub254                   105.60       0.00       0.00      10.50      86.90       0.06      86.96        0.27     0.01   0.823
  sub255                   105.60       0.00       0.00      10.49      87.13       0.07      87.21        0.19     0.01   0.826
  sub256                   105.60       0.00       0.00      10.49      87.14       0.08      87.22        0.18     0.01   0.826
  sub257                   105.60       0.00       0.00      10.49      87.09       0.07      87.16        0.19     0.01   0.825
  sub258                   105.60       0.00       0.00      10.49      87.06       0.07      87.13        0.19     0.01   0.825
  sub259                   105.60       0.00       0.00      10.49      87.08       0.07      87.16        0.19     0.01   0.825
  sub260                   105.60       0.00       0.00      10.49      87.15       0.08      87.22        0.16     0.01   0.826
  sub261                   105.60       0.00       0.00      10.48      87.16       0.08      87.24        0.15     0.00   0.826
  sub262                   105.60       0.00       0.00      10.45      87.50       0.11      87.61        0.11     0.00   0.830
  sub263                   105.60       0.00       0.00      10.42      87.66       0.14      87.80        0.04     0.00   0.831
  sub264                   105.60       0.00       0.00      10.49      87.05       0.07      87.12        0.23     0.01   0.825
  sub265                   105.60       0.00       0.00      10.45      87.52       0.11      87.63        0.10     0.00   0.830
  sub266                   105.60       0.00       0.00      10.45      87.50       0.11      87.61        0.04     0.00   0.830
  
  
  ******************
  Node Depth Summary
  ******************
  
  ---------------------------------------------------------------------------------
                                 Average  Maximum  Maximum  Time of Max    Reported
                                   Depth    Depth      HGL   Occurrence   Max Depth
  Node                 Type       Meters   Meters   Meters  days hr:min      Meters
  ---------------------------------------------------------------------------------
  Y029640              JUNCTION     0.05     0.61    44.27     0  10:48        0.57
  Y029650              JUNCTION     0.08     0.25    43.64     0  11:14        0.23
  Y029652              JUNCTION     0.09     0.43    44.36     0  10:50        0.40
  Y029653              JUNCTION     0.03     0.31    44.02     0  09:16        0.26
  Y029657              JUNCTION     0.16     0.45    39.95     0  11:15        0.44
  Y029885              JUNCTION     0.04     0.30    44.28     0  10:50        0.29
  Y029887              JUNCTION     0.08     0.20    43.48     0  11:15        0.20
  Y029904              JUNCTION     0.28     1.27    44.00     0  10:46        1.27
  Y029905              JUNCTION     0.28     0.75    44.41     0  09:17        0.64
  Y029942              JUNCTION     0.02     0.04    44.29     0  09:13        0.04
  Y029945              JUNCTION     0.13     0.97    44.56     0  10:47        0.94
  Y029946              JUNCTION     0.09     0.67    43.64     0  11:15        0.63
  Y029947              JUNCTION     0.17     0.53    39.82     0  11:16        0.52
  Y029949              JUNCTION     0.05     0.54    44.07     0  10:49        0.49
  Y029950              JUNCTION     0.17     0.45    43.00     0  11:14        0.44
  Y029959              JUNCTION     0.08     0.17    43.65     0  11:12        0.17
  Y029961              JUNCTION     0.29     0.69    39.49     0  11:16        0.68
  Y029962              JUNCTION     0.00     0.01    44.02     0  09:15        0.01
  Y029963              JUNCTION     0.14     1.02    44.99     0  10:46        0.79
  Y030009              JUNCTION     0.01     0.04    44.06     1  04:09        0.03
  Y030023              JUNCTION     0.03     0.08    44.31     0  10:50        0.07
  Y030024              JUNCTION     0.17     0.32    43.70     0  11:15        0.32
  Y030078              JUNCTION     0.32     0.48    43.71     0  11:15        0.47
  Y030099              JUNCTION     0.05     0.51    44.27     0  10:47        0.48
  Y030124              JUNCTION     0.49     1.29    44.91     0  10:46        1.13
  Y030134              JUNCTION     0.06     0.51    44.42     0  09:18        0.42
  Y030135              JUNCTION     0.22     1.22    44.75     0  10:48        1.14
  Y030179              JUNCTION     0.02     0.05    43.80     0  09:14        0.05
  Y030217              JUNCTION     0.09     0.19    43.23     0  11:15        0.19
  Y030306              JUNCTION     0.04     0.28    44.42     0  09:17        0.20
  Y030397              JUNCTION     0.31     0.69    39.37     0  11:15        0.69
  Y030527              JUNCTION     0.04     0.22    44.42     0  09:17        0.13
  Y030541              JUNCTION     0.33     1.22    44.58     0  10:46        1.17
  Y030542              JUNCTION     0.21     0.65    44.03     0  09:17        0.58
  Y030543              JUNCTION     0.25     1.33    44.20     0  10:48        1.30
  Y030548              JUNCTION     0.26     1.07    43.76     0  18:25        0.91
  Y030582              JUNCTION     0.06     0.11    42.06     0  10:49        0.11
  Y030583              JUNCTION     0.07     0.49    44.43     0  09:17        0.39
  Y030585              JUNCTION     0.10     0.70    44.06     0  10:49        0.66
  Y030587              JUNCTION     0.04     0.44    44.27     0  10:48        0.41
  Y030588              JUNCTION     0.31     1.19    44.57     0  10:46        1.15
  Y030601              JUNCTION     0.06     0.12    43.86     0  10:51        0.12
  Y030640              JUNCTION     0.10     0.81    44.27     0  10:48        0.77
  Y030711              JUNCTION     0.30     0.73    44.02     0  09:16        0.67
  Y030712              JUNCTION     0.16     0.23    43.79     0  10:51        0.23
  Y030713              JUNCTION     0.75     1.64    44.57     0  10:48        1.60
  Y030795              JUNCTION     0.37     1.43    44.12     0  10:46        1.41
  Y030796              JUNCTION     0.04     0.24    44.18     0  10:50        0.23
  Y030797              JUNCTION     0.19     0.77    44.55     0  10:47        0.74
  Y030798              JUNCTION     0.07     0.64    44.06     0  10:49        0.59
  Y030800              JUNCTION     0.06     0.53    44.40     0  09:18        0.44
  Y030801              JUNCTION     0.04     0.79    45.19     0  10:48        0.32
  Y030963              JUNCTION     0.06     0.17    43.71     0  11:14        0.17
  Y030969              JUNCTION     0.18     0.25    43.79     0  10:51        0.25
  Y030971              JUNCTION     0.12     1.02    44.26     0  10:48        0.98
  Y030991              JUNCTION     0.09     0.28    43.60     0  11:14        0.28
  Y031021              JUNCTION     0.06     0.20    43.62     0  11:14        0.19
  Y031068              JUNCTION     0.35     1.26    44.61     0  10:49        1.22
  Y031069              JUNCTION     0.11     0.96    44.90     0  10:48        0.78
  Y031121              JUNCTION     0.15     0.41    42.86     0  11:14        0.40
  Y031141              JUNCTION     0.22     0.73    43.37     0  11:13        0.71
  Y031142              JUNCTION     0.03     0.05    44.45     0  10:49        0.05
  Y031148              JUNCTION     0.13     1.00    44.26     0  10:48        0.96
  Y031149              JUNCTION     0.10     0.86    44.04     0  10:49        0.82
  Y031152              JUNCTION     0.31     1.22    43.79     0  11:10        1.20
  Y031230              JUNCTION     0.14     0.26    43.73     0  11:14        0.26
  Y031236              JUNCTION     0.25     1.07    44.52     0  10:46        1.07
  Y031393              JUNCTION     0.05     0.41    44.02     0  09:16        0.36
  Y031395              JUNCTION     0.14     0.65    44.40     0  09:17        0.55
  Y031417              JUNCTION     0.09     0.82    44.56     0  10:47        0.79
  Y031418              JUNCTION     0.48     1.27    44.79     0  10:49        1.19
  Y031419              JUNCTION     0.26     0.66    39.75     0  11:16        0.65
  Y031420              JUNCTION     0.13     0.94    44.78     0  10:48        0.86
  Y031421              JUNCTION     0.16     0.46    43.87     0  11:14        0.42
  Y031535              JUNCTION     0.05     0.67    45.10     0  10:48        0.29
  Y031537              JUNCTION     0.11     0.95    44.88     0  10:48        0.77
  Y031544              JUNCTION     0.03     0.14    44.42     0  09:17        0.07
  Y031581              JUNCTION     0.11     0.86    44.07     0  10:49        0.81
  Y031582              JUNCTION     0.42     0.86    44.03     0  09:16        0.79
  Y031583              JUNCTION     0.17     0.48    39.91     0  11:16        0.48
  Y031584              JUNCTION     0.03     0.25    44.82     0  10:49        0.15
  Y031610              JUNCTION     0.29     0.61    39.21     0  11:15        0.60
  Y031614              JUNCTION     0.19     0.97    44.89     0  10:46        0.82
  Y031730              JUNCTION     0.01     0.02    44.32     1  04:09        0.02
  Y031737              JUNCTION     0.14     0.57    44.02     0  09:17        0.51
  Y031826              JUNCTION     0.09     0.86    44.87     0  10:46        0.74
  Y031827              JUNCTION     0.11     0.31    43.60     0  11:15        0.31
  Y031829              JUNCTION     0.31     0.84    44.38     0  09:17        0.74
  Y031830              JUNCTION     0.15     0.41    42.94     0  11:14        0.41
  Y031892              JUNCTION     0.17     0.51    43.92     0  09:17        0.47
  Y031893              JUNCTION     0.22     1.01    44.80     0  10:49        0.91
  Y031898              JUNCTION     0.02     0.04    43.90     0  09:14        0.04
  Y031903              JUNCTION     0.40     1.28    44.57     0  10:46        1.24
  Y031999              JUNCTION     0.39     1.43    44.10     0  10:49        1.41
  Y032107              JUNCTION     0.35     0.79    39.61     0  11:16        0.78
  Y032134              JUNCTION     0.28     0.68    39.81     0  11:16        0.67
  Y032136              JUNCTION     0.26     0.85    44.56     0  10:47        0.81
  Y032230              JUNCTION     0.03     0.07    43.69     0  10:49        0.07
  Y032232              JUNCTION     0.01     0.04    43.90     0  09:13        0.03
  Y032273              JUNCTION     0.07     0.65    44.55     0  10:47        0.62
  Y032275              JUNCTION     0.11     0.83    44.07     0  10:48        0.78
  Y032276              JUNCTION     0.21     1.08    44.38     0  10:48        1.04
  Y032277              JUNCTION     0.25     0.68    44.02     0  09:15        0.62
  Y032283              JUNCTION     0.02     0.04    44.17     0  11:10        0.04
  Y032285              JUNCTION     0.06     0.61    44.28     0  10:48        0.56
  Y032311              JUNCTION     0.37     1.44    44.13     0  10:49        1.42
  Y032312              JUNCTION     0.19     0.74    43.43     0  11:10        0.72
  Y032313              JUNCTION     0.35     1.25    44.60     0  10:48        1.20
  Y032314              JUNCTION     0.07     0.50    44.46     0  10:46        0.46
  Y032315              JUNCTION     0.05     0.69    44.72     0  10:46        0.51
  Y032357              JUNCTION     0.31     0.77    39.66     0  11:16        0.76
  Y032358              JUNCTION     0.32     1.26    45.05     0  10:46        0.96
  Y032363              JUNCTION     0.30     1.11    44.82     0  10:49        1.02
  Y032374              JUNCTION     0.49     1.29    44.91     0  10:46        1.13
  Y032375              JUNCTION     0.15     0.92    44.88     0  10:46        0.79
  Y032607              JUNCTION     0.21     0.46    38.99     0  11:16        0.46
  Y032608              JUNCTION     0.10     0.82    44.27     0  10:48        0.78
  Y032611              JUNCTION     0.12     0.31    39.96     0  11:15        0.30
  Y032701              JUNCTION     0.04     0.43    44.07     0  10:48        0.38
  Y032719              JUNCTION     0.25     0.68    39.70     0  11:16        0.67
  Y032731              JUNCTION     0.19     0.51    43.10     0  11:14        0.51
  Y032741              JUNCTION     0.21     0.78    43.47     0  11:13        0.75
  Y032747              JUNCTION     0.21     0.37    43.71     0  11:15        0.36
  Y032760              JUNCTION     0.08     0.60    44.38     0  09:17        0.50
  Y032829              JUNCTION     0.03     0.06    43.96     0  10:50        0.06
  Y032839              JUNCTION     0.25     1.04    44.90     0  10:46        0.89
  Y032897              JUNCTION     0.27     0.35    43.87     0  10:50        0.35
  Y032936              JUNCTION     0.16     0.60    44.03     0  09:16        0.53
  Y032937              JUNCTION     0.17     1.12    44.03     0  10:49        1.07
  Y032938              JUNCTION     0.13     0.68    43.65     0  11:13        0.66
  Y033129              JUNCTION     0.02     0.28    44.06     0  10:49        0.25
  Y033131              JUNCTION     0.15     0.97    44.05     0  10:49        0.93
  Y033133              JUNCTION     0.63     1.06    44.02     0  09:17        1.00
  Y033153              JUNCTION     0.18     0.81    44.31     0  09:16        0.73
  Y033202              JUNCTION     0.25     0.85    44.22     0  09:17        0.77
  Y033204              JUNCTION     0.20     0.62    43.24     0  11:14        0.61
  Y033275              JUNCTION     0.05     0.42    44.39     0  10:46        0.41
  Y033307              JUNCTION     0.01     0.01    44.17     0  09:13        0.01
  Y033332              JUNCTION     0.02     0.19    44.26     0  10:48        0.16
  Y033333              JUNCTION     0.34     1.12    43.55     0  11:14        1.10
  Y033338              JUNCTION     0.02     0.04    43.82     0  10:51        0.04
  Y033431              JUNCTION     0.04     0.38    44.43     0  09:17        0.28
  Y033479              JUNCTION     0.09     0.22    43.64     0  11:15        0.21
  Y033523              JUNCTION     0.28     1.11    44.84     0  10:49        1.01
  Y033526              JUNCTION     0.07     0.16    41.30     0  11:14        0.16
  Y033528              JUNCTION     0.06     0.49    44.45     0  10:46        0.46
  Y033578              JUNCTION     0.01     0.02    43.73     0  10:51        0.02
  Y033580              JUNCTION     0.27     0.47    43.59     0  18:33        0.47
  Y033666              JUNCTION     0.23     1.12    44.58     0  10:46        1.07
  Y033681              JUNCTION     0.05     0.64    44.58     0  10:46        0.59
  Y033682              JUNCTION     0.32     0.76    44.03     0  09:16        0.70
  Y033683              JUNCTION     0.08     0.51    44.48     0  10:46        0.46
  Y033721              JUNCTION     0.06     0.11    44.03     0  10:50        0.11
  Y033724              JUNCTION     0.13     0.31    43.62     0  11:14        0.30
  Y033743              JUNCTION     0.08     0.24    43.69     0  11:15        0.23
  Y033768              JUNCTION     0.06     0.63    44.27     0  10:48        0.59
  Y033772              JUNCTION     0.14     0.92    44.79     0  10:49        0.84
  Y033773              JUNCTION     0.09     0.22    42.39     0  11:14        0.22
  Y033777              JUNCTION     0.23     1.12    44.58     0  10:48        1.07
  Y033912              JUNCTION     0.09     0.62    44.38     0  09:16        0.53
  Y033913              JUNCTION     0.13     0.92    44.27     0  10:48        0.88
  Y033936              JUNCTION     0.13     0.30    43.69     0  11:15        0.29
  Y033937              JUNCTION     0.16     0.35    41.49     0  11:14        0.35
  Y033938              JUNCTION     0.24     1.11    44.56     0  10:49        1.08
  Y034019              JUNCTION     0.06     0.67    44.08     0  10:49        0.62
  Y034022              JUNCTION     0.19     0.77    44.55     0  10:46        0.75
  Y034023              JUNCTION     0.35     1.22    44.56     0  10:46        1.19
  Y034024              JUNCTION     0.17     0.91    44.07     0  10:49        0.86
  Y034233              JUNCTION     0.09     0.71    44.05     0  10:48        0.67
  Y034253              JUNCTION     0.03     0.07    44.35     0  09:15        0.07
  Y034256              JUNCTION     0.36     1.45    44.17     0  10:48        1.43
  Y034312              JUNCTION     0.14     0.35    42.64     0  11:14        0.35
  Y034314              JUNCTION     0.21     0.54    39.87     0  11:16        0.53
  Y034349              JUNCTION     0.11     0.24    43.65     0  11:15        0.23
  Y034351              JUNCTION     0.12     0.32    43.61     0  11:15        0.32
  Y034355              JUNCTION     0.02     0.05    43.81     0  10:49        0.05
  Y034363              JUNCTION     0.05     0.12    43.79     0  10:51        0.11
  Y034403              JUNCTION     0.18     0.38    43.62     0  09:10        0.37
  Y034437              JUNCTION     0.42     1.41    43.94     0  10:49        1.38
  Y034542              JUNCTION     0.24     0.84    44.59     0  10:46        0.78
  Y034559              JUNCTION     0.26     1.25    44.73     0  10:48        1.18
  Y034560              JUNCTION     0.06     0.55    44.06     0  10:49        0.51
  Y034571              JUNCTION     0.11     0.96    44.90     0  10:48        0.77
  Y034572              JUNCTION     0.15     0.41    42.96     0  11:14        0.41
  Y034573              JUNCTION     0.11     0.79    44.08     0  10:49        0.73
  Y034683              JUNCTION     0.21     1.13    44.25     0  10:49        1.10
  Y034774              JUNCTION     0.05     0.11    43.77     0  09:15        0.11
  Y034775              JUNCTION     0.06     0.45    44.43     0  09:18        0.35
  Y034776              JUNCTION     0.25     1.20    44.66     0  10:49        1.15
  Y034972              JUNCTION     0.12     0.29    43.68     0  11:15        0.28
  Y034985              JUNCTION     0.30     1.10    44.91     0  10:46        0.94
  Y035031              JUNCTION     0.07     0.61    44.43     0  10:46        0.59
  Y035036              JUNCTION     0.04     0.20    44.06     0  10:50        0.20
  Y035038              JUNCTION     0.15     0.39    42.77     0  11:14        0.39
  Y035039              JUNCTION     0.13     0.98    44.26     0  10:48        0.95
  Y035073              JUNCTION     0.30     1.10    44.91     0  10:46        0.94
  Y035146              JUNCTION     0.24     0.89    43.58     0  11:14        0.87
  Y035147              JUNCTION     0.21     0.65    44.03     0  09:16        0.58
  Y035148              JUNCTION     0.14     0.92    44.07     0  10:49        0.87
  Y035152              JUNCTION     0.10     0.17    43.79     0  10:51        0.17
  Y035360              JUNCTION     0.32     0.56    43.63     0  18:31        0.52
  Y035470              JUNCTION     0.18     0.30    43.73     0  11:14        0.29
  Y035552              JUNCTION     0.14     0.99    44.77     0  10:48        0.90
  Y035645              JUNCTION     0.19     0.78    44.56     0  10:46        0.74
  Y035646              JUNCTION     0.08     0.76    44.07     0  10:49        0.72
  Y035677              JUNCTION     0.12     0.23    42.60     0  10:49        0.23
  Y035678              JUNCTION     0.20     0.68    43.32     0  11:14        0.65
  Y035684              JUNCTION     0.28     0.44    43.71     0  11:15        0.44
  Y035686              JUNCTION     0.02     0.04    43.97     0  11:12        0.04
  Y035691              JUNCTION     0.08     0.15    43.79     0  10:51        0.14
  Y035711              JUNCTION     0.08     0.26    43.61     0  11:14        0.25
  Y036038              JUNCTION     0.30     0.79    44.09     0  09:16        0.72
  Y036039              JUNCTION     0.27     0.83    44.17     0  09:17        0.76
  Y036040              JUNCTION     0.28     0.81    44.14     0  09:17        0.74
  Y036042              JUNCTION     0.25     0.92    43.61     0  11:12        0.89
  Y036418              JUNCTION     0.22     0.30    43.87     0  10:50        0.30
  Y036715              JUNCTION     0.05     0.11    42.00     0  11:14        0.10
  Y036716              JUNCTION     0.01     0.01    42.08     0  09:13        0.01
  Y036764              JUNCTION     0.20     1.05    44.56     0  10:47        1.01
  Y036765              JUNCTION     0.19     1.04    44.55     0  10:47        1.01
  Y036766              JUNCTION     0.22     1.07    44.55     0  10:47        1.04
  Y036767              JUNCTION     0.23     1.07    44.54     0  10:47        1.05
  Y036855              JUNCTION     0.06     0.13    43.65     0  10:51        0.12
  Y036856              JUNCTION     0.07     0.14    43.60     0  10:51        0.13
  Y036857              JUNCTION     0.05     0.12    43.53     0  10:51        0.11
  Y036858              JUNCTION     0.11     0.24    43.27     0  10:52        0.23
  Y036859              JUNCTION     0.12     0.24    43.26     0  10:52        0.24
  Y036860              JUNCTION     0.07     0.18    43.19     0  10:52        0.18
  Y036861              JUNCTION     0.10     0.22    43.19     0  10:52        0.22
  Y036863              JUNCTION     0.12     0.25    43.16     0  10:52        0.25
  Y036864              JUNCTION     0.10     0.22    43.11     0  10:52        0.21
  Y036865              JUNCTION     0.09     0.19    43.00     0  10:53        0.18
  Y036866              JUNCTION     0.13     0.27    42.92     0  10:53        0.27
  Y036867              JUNCTION     0.12     0.25    42.86     0  10:53        0.24
  Y036868              JUNCTION     0.09     0.20    42.80     0  10:53        0.20
  Y036869              JUNCTION     0.10     0.23    42.65     0  10:53        0.22
  Y036870              JUNCTION     0.14     0.32    42.61     0  10:53        0.32
  Y036871              JUNCTION     0.16     0.34    42.58     0  10:53        0.34
  Y036872              JUNCTION     0.12     0.26    42.48     0  10:53        0.26
  Y036874              JUNCTION     0.10     0.23    42.44     0  10:53        0.23
  Y036875              JUNCTION     0.09     0.19    42.38     0  10:53        0.19
  Y036876              JUNCTION     0.04     0.09    41.69     0  10:53        0.09
  Y036884              JUNCTION     0.02     0.05    44.43     0  10:49        0.05
  Y036885              JUNCTION     0.01     0.03    44.04     0  10:49        0.03
  Y036886              JUNCTION     0.04     0.08    43.81     0  10:51        0.08
  Y037059              JUNCTION     0.33     1.27    43.86     0  10:48        1.24
  Y037060              JUNCTION     0.23     0.39    43.71     0  11:14        0.38
  Y037061              JUNCTION     0.08     0.21    43.65     0  11:15        0.20
  Y037062              JUNCTION     0.18     0.34    43.71     0  11:14        0.33
  Y037063              JUNCTION     0.21     0.34    43.65     0  11:15        0.33
  Y037064              JUNCTION     0.02     0.06    44.36     0  09:15        0.06
  Y037065              JUNCTION     0.33     1.36    44.00     0  10:49        1.32
  Y037066              JUNCTION     0.27     1.33    44.05     0  08:54        1.27
  Y037067              JUNCTION     0.40     1.40    43.96     0  10:49        1.38
  Y037068              JUNCTION     0.42     1.42    43.95     0  10:48        1.40
  Y037069              JUNCTION     0.22     1.34    44.14     0  08:55        1.19
  Y037070              JUNCTION     0.21     1.20    44.03     0  10:49        1.17
  Y037071              JUNCTION     0.17     1.11    44.04     0  10:49        1.07
  Y037072              JUNCTION     0.35     1.36    43.97     0  10:50        1.33
  Y037073              JUNCTION     0.31     1.35    44.01     0  10:49        1.32
  Y037166              JUNCTION     0.08     0.47    43.24     0  11:14        0.46
  Y037249              JUNCTION     0.14     0.66    44.37     0  09:18        0.57
  Y037549              JUNCTION     0.24     0.88    44.72     0  10:46        0.69
  Y037550              JUNCTION     0.20     0.85    44.72     0  10:46        0.66
  YF_00530             JUNCTION     0.04     0.08    44.25     0  11:10        0.08
  YF_01035             JUNCTION     0.14     0.75    44.25     0  09:17        0.67
  PSK                  OUTFALL      0.21     0.46    38.45     0  11:16        0.45
  
  
  *******************
  Node Inflow Summary
  *******************
  
  -------------------------------------------------------------------------------------------------
                                  Maximum  Maximum                  Lateral       Total        Flow
                                  Lateral    Total  Time of Max      Inflow      Inflow     Balance
                                   Inflow   Inflow   Occurrence      Volume      Volume       Error
  Node                 Type           CMS      CMS  days hr:min    10^6 ltr    10^6 ltr     Percent
  -------------------------------------------------------------------------------------------------
  Y029640              JUNCTION     0.001    0.006     0  09:18      0.0137       0.169      -0.008
  Y029650              JUNCTION     0.004    0.115     0  09:17       0.094        3.48       0.001
  Y029652              JUNCTION     0.002    0.045     0  10:48      0.0574       0.352       0.029
  Y029653              JUNCTION     0.004    0.004     0  09:15        0.12        0.12       0.003
  Y029657              JUNCTION     0.003    0.238     0  11:14      0.0906        6.54       0.002
  Y029885              JUNCTION     0.004    0.049     0  10:48       0.117       0.387       0.002
  Y029887              JUNCTION     0.006    0.131     0  11:14       0.197        4.37      -0.036
  Y029904              JUNCTION     0.005    0.166     0  10:49       0.146        6.98      -0.000
  Y029905              JUNCTION     0.003    0.025     0  09:20      0.0916       0.751       0.097
  Y029942              JUNCTION     0.003    0.003     0  09:13      0.0745      0.0745       0.003
  Y029945              JUNCTION     0.000    0.089     0  09:00     0.00384       0.651       0.559
  Y029946              JUNCTION     0.002    0.158     0  18:28      0.0444        3.63       0.001
  Y029947              JUNCTION     0.007    0.256     0  11:15       0.214        7.17       0.004
  Y029949              JUNCTION     0.010    0.010     0  11:10       0.357       0.357       0.003
  Y029950              JUNCTION     0.004    0.206     0  11:13       0.127        5.51       0.002
  Y029959              JUNCTION     0.004    0.033     0  10:50       0.129        1.06       0.007
  Y029961              JUNCTION     0.005    0.678     0  11:16       0.145        23.4       0.004
  Y029962              JUNCTION     0.003    0.003     0  09:13      0.0806      0.0806       0.016
  Y029963              JUNCTION     0.009    0.021     0  10:46       0.324       0.678       0.133
  Y030009              JUNCTION     0.001    0.003     0  09:13      0.0151      0.0605       0.001
  Y030023              JUNCTION     0.006    0.009     0  10:49       0.185        0.28       0.005
  Y030024              JUNCTION     0.003    0.058     0  11:12      0.0831        1.96       0.040
  Y030078              JUNCTION     0.003    0.055     0  11:12      0.0789        1.88       0.108
  Y030099              JUNCTION     0.004    0.004     0  09:13       0.106       0.106      -0.002
  Y030124              JUNCTION     0.001    0.028     0  10:46      0.0324       0.815       0.491
  Y030134              JUNCTION     0.004    0.022     0  09:21       0.121        0.66       0.002
  Y030135              JUNCTION     0.006    0.098     0  10:49       0.191        3.02       0.000
  Y030179              JUNCTION     0.002    0.005     0  09:13       0.069       0.157      -0.011
  Y030217              JUNCTION     0.009    0.139     0  11:14       0.311        4.68       0.007
  Y030306              JUNCTION     0.001    0.015     0  10:54      0.0261       0.377       0.001
  Y030397              JUNCTION     0.002    0.798     0  11:15      0.0447        27.4       0.003
  Y030527              JUNCTION     0.003    0.012     0  10:51      0.0872       0.351       0.002
  Y030541              JUNCTION     0.003    0.035     0  09:04      0.0898        1.16       0.063
  Y030542              JUNCTION     0.002    0.007     1  04:10      0.0609       0.152       0.152
  Y030543              JUNCTION     0.003    0.151     0  10:49      0.0736        6.53      -0.001
  Y030548              JUNCTION     0.002    0.161     0  08:56      0.0647        3.69       0.057
  Y030582              JUNCTION     0.002    0.262     0  10:49      0.0517        10.8       0.000
  Y030583              JUNCTION     0.003    0.018     0  09:21      0.0792       0.539       0.003
  Y030585              JUNCTION     0.002    0.015     0  10:49      0.0657        0.46       0.003
  Y030587              JUNCTION     0.002    0.006     0  10:48      0.0486       0.171       0.004
  Y030588              JUNCTION     0.003    0.033     0  10:49      0.0714        1.01       0.044
  Y030601              JUNCTION     0.005    0.014     0  10:50        0.18       0.446       0.007
  Y030640              JUNCTION     0.001    0.007     0  10:49      0.0329       0.202       0.014
  Y030711              JUNCTION     0.001    0.070     0  09:16      0.0273        2.08       0.035
  Y030712              JUNCTION     0.006    0.010     0  09:14       0.178        0.28       0.271
  Y030713              JUNCTION     0.002    0.036     0  09:07      0.0576         1.2       0.270
  Y030795              JUNCTION     0.002    0.159     0  10:49      0.0506        6.77       0.000
  Y030796              JUNCTION     0.004    0.053     0  10:49       0.129       0.475       0.001
  Y030797              JUNCTION     0.002    0.005     0  09:08      0.0473      0.0585       0.523
  Y030798              JUNCTION     0.003    0.013     0  10:49      0.0987       0.394       0.003
  Y030800              JUNCTION     0.001    0.026     0  09:20      0.0269       0.777       0.001
  Y030801              JUNCTION     0.002    0.026     0  10:47      0.0495       0.355       0.001
  Y030963              JUNCTION     0.004    0.033     0  10:50       0.105        1.15       0.001
  Y030969              JUNCTION     0.004    0.004     0  09:13       0.102       0.102       0.335
  Y030971              JUNCTION     0.005    0.011     0  18:28       0.153       0.154      -0.025
  Y030991              JUNCTION     0.004    0.051     0  09:03       0.101        1.36      -0.030
  Y031021              JUNCTION     0.003    0.036     0  10:51      0.0915        1.15       0.004
  Y031068              JUNCTION     0.003    0.121     0  10:49      0.0925        3.85       0.027
  Y031069              JUNCTION     0.002    0.021     0  10:50      0.0695       0.559       0.004
  Y031121              JUNCTION     0.004    0.213     0  11:14         0.1        5.73       0.001
  Y031141              JUNCTION     0.004    0.188     0  11:15       0.116         4.9       0.002
  Y031142              JUNCTION     0.007    0.007     0  10:49       0.234       0.234       0.003
  Y031148              JUNCTION     0.002    0.024     0  10:48      0.0445       0.691      -0.008
  Y031149              JUNCTION     0.003    0.022     0  10:49      0.0911       0.656      -0.001
  Y031152              JUNCTION     0.005    0.247     0  10:50       0.151        10.3      -0.001
  Y031230              JUNCTION     0.002    0.026     0  10:50      0.0382       0.942       0.041
  Y031236              JUNCTION     0.001    0.057     0  10:49      0.0189        1.05       0.014
  Y031393              JUNCTION     0.002    0.006     0  09:14      0.0423       0.162       0.002
  Y031395              JUNCTION     0.002    0.027     0  09:20      0.0494       0.827       0.009
  Y031417              JUNCTION     0.002    0.016     0  09:02      0.0454       0.394       0.079
  Y031418              JUNCTION     0.003    0.065     0  10:46       0.106        1.83       0.157
  Y031419              JUNCTION     0.003    0.520     0  11:16      0.0993        18.1       0.003
  Y031420              JUNCTION     0.002    0.088     0  10:49      0.0622        2.73       0.002
  Y031421              JUNCTION     0.003    0.073     0  09:16      0.0694        2.17       0.004
  Y031535              JUNCTION     0.003    0.021     0  10:47      0.0719       0.304       0.006
  Y031537              JUNCTION     0.004    0.025     0  10:50       0.143       0.701       0.003
  Y031544              JUNCTION     0.001    0.008     0  10:49      0.0304       0.264       0.003
  Y031581              JUNCTION     0.002    0.034     0  10:50        0.05        1.06       0.003
  Y031582              JUNCTION     0.001    0.001     0  03:45       0.017      0.0176       4.076
  Y031583              JUNCTION     0.006    0.244     0  11:14       0.202        6.74       0.004
  Y031584              JUNCTION     0.007    0.011     0  10:48       0.232       0.232       0.004
  Y031610              JUNCTION     0.004    0.802     0  11:15       0.135        27.5       0.003
  Y031614              JUNCTION     0.004    0.039     0  10:46       0.123        1.05       0.121
  Y031730              JUNCTION     0.001    0.001     1  04:09      0.0251      0.0251       0.001
  Y031737              JUNCTION     0.003    0.011     1  04:10      0.0772        0.23       0.014
  Y031826              JUNCTION     0.005    0.048     0  10:46       0.144        1.28       0.002
  Y031827              JUNCTION     0.004    0.080     0  11:16       0.145         2.7      -0.007
  Y031829              JUNCTION     0.007    0.007     0  10:49       0.242       0.242       0.252
  Y031830              JUNCTION     0.003    0.210     0  11:14      0.0756        5.63       0.001
  Y031892              JUNCTION     0.001    0.070     0  09:16      0.0255         2.1       0.003
  Y031893              JUNCTION     0.003    0.086     0  10:49      0.0943        2.67       0.035
  Y031898              JUNCTION     0.003    0.003     0  09:13      0.0786      0.0881       0.004
  Y031903              JUNCTION     0.003    0.032     0  09:04      0.0959        1.09       0.081
  Y031999              JUNCTION     0.002    0.162     0  10:49      0.0706        6.84       0.003
  Y032107              JUNCTION     0.001    0.673     0  11:16      0.0228        23.2       0.006
  Y032134              JUNCTION     0.001    0.517     0  11:14      0.0311          18       0.004
  Y032136              JUNCTION     0.004    0.008     0  09:08       0.144       0.202       0.389
  Y032230              JUNCTION     0.002    0.010     0  10:49      0.0732       0.313      -0.000
  Y032232              JUNCTION     0.003    0.005     0  09:13       0.072       0.133      -0.002
  Y032273              JUNCTION     0.005    0.012     0  10:46       0.147       0.348      -0.015
  Y032275              JUNCTION     0.004    0.014     0  10:45       0.121       0.478       0.012
  Y032276              JUNCTION     0.004    0.120     0  18:30       0.135        5.59       0.000
  Y032277              JUNCTION     0.003    0.012     0  09:13      0.0852       0.316       0.135
  Y032283              JUNCTION     0.001    0.011     0  11:10      0.0253       0.415       0.001
  Y032285              JUNCTION     0.002    0.006     0  09:18      0.0496       0.155       0.011
  Y032311              JUNCTION     0.003    0.157     0  10:49      0.0769        6.72       0.001
  Y032312              JUNCTION     0.004    0.184     0  11:15       0.124        4.79       0.000
  Y032313              JUNCTION     0.001    0.121     0  10:49      0.0129        3.86       0.007
  Y032314              JUNCTION     0.002    0.008     0  09:14        0.05       0.214       0.006
  Y032315              JUNCTION     0.003    0.013     0  10:46       0.104       0.371       0.006
  Y032357              JUNCTION     0.005    0.528     0  11:16       0.141        18.4       0.003
  Y032358              JUNCTION     0.009    0.009     0  11:14       0.357       0.357       0.500
  Y032363              JUNCTION     0.006    0.062     0  10:46       0.201        1.73       0.067
  Y032374              JUNCTION     0.004    0.027     0  10:46       0.108       0.786       0.884
  Y032375              JUNCTION     0.003    0.042     0  10:46       0.091        1.14       0.028
  Y032607              JUNCTION     0.003    0.805     0  11:16      0.0922        27.6       0.002
  Y032608              JUNCTION     0.002    0.017     0  10:48      0.0577       0.474       0.004
  Y032611              JUNCTION     0.002    0.235     0  11:14      0.0542        6.45       0.001
  Y032701              JUNCTION     0.004    0.007     0  09:16       0.132       0.132       0.001
  Y032719              JUNCTION     0.005    0.524     0  11:16       0.138        18.2       0.002
  Y032731              JUNCTION     0.006    0.202     0  11:13       0.181        5.38       0.002
  Y032741              JUNCTION     0.005    0.180     0  11:15       0.165        4.66      -0.012
  Y032747              JUNCTION     0.002    0.051     0  11:10      0.0609        1.74       0.077
  Y032760              JUNCTION     0.001    0.028     0  09:19       0.018       0.845       0.003
  Y032829              JUNCTION     0.002    0.014     0  10:49      0.0426       0.426      -0.001
  Y032839              JUNCTION     0.003    0.035     0  10:46       0.094       0.933       0.262
  Y032897              JUNCTION     0.003    0.009     0  09:14       0.106       0.267       0.435
  Y032936              JUNCTION     0.001    0.006     1  04:11      0.0358      0.0534       0.128
  Y032937              JUNCTION     0.004    0.129     0  18:25       0.115        1.57      -0.007
  Y032938              JUNCTION     0.004    0.118     0  09:17       0.102        3.59       0.029
  Y033129              JUNCTION     0.002    0.006     0  10:46      0.0425      0.0437      -0.046
  Y033131              JUNCTION     0.007    0.042     0  10:50       0.245        1.35       0.009
  Y033133              JUNCTION     0.001    0.057     0  09:17      0.0179        1.74       0.110
  Y033153              JUNCTION     0.004    0.041     0  09:18       0.116        1.29       0.008
  Y033202              JUNCTION     0.001    0.045     0  09:18      0.0351        1.42       0.014
  Y033204              JUNCTION     0.002    0.197     0  10:49      0.0714        5.28      -0.014
  Y033275              JUNCTION     0.002    0.043     0  10:48      0.0363       0.363      -0.000
  Y033307              JUNCTION     0.001    0.001     0  09:13        0.03        0.03      -0.002
  Y033332              JUNCTION     0.002    0.005     0  10:46      0.0477       0.122       0.001
  Y033333              JUNCTION     0.009    0.256     0  10:49       0.298        10.6       0.003
  Y033338              JUNCTION     0.008    0.009     0  10:49       0.253       0.301       0.023
  Y033431              JUNCTION     0.001    0.016     0  10:58      0.0285       0.406       0.002
  Y033479              JUNCTION     0.002    0.072     0  11:15      0.0606        2.43       0.007
  Y033523              JUNCTION     0.008    0.055     0  10:46       0.248        1.53       0.049
  Y033526              JUNCTION     0.003    0.233     0  11:14      0.0745        6.39       0.000
  Y033528              JUNCTION     0.001    0.009     0  09:14      0.0255       0.239       0.002
  Y033578              JUNCTION     0.004    0.014     0  10:51       0.113       0.489       0.005
  Y033580              JUNCTION     0.002    0.176     0  09:01      0.0544        4.88      -0.100
  Y033666              JUNCTION     0.001    0.137     0  10:49      0.0245        5.48       0.010
  Y033681              JUNCTION     0.001    0.016     0  10:46      0.0134       0.424      -0.001
  Y033682              JUNCTION     0.001    0.056     0  09:17      0.0338        1.72       0.088
  Y033683              JUNCTION     0.005    0.005     0  10:49       0.164       0.164       0.007
  Y033721              JUNCTION     0.003    0.012     0  10:50       0.103       0.383       0.007
[...]
  Cond4011                1.00   0.01  0.00  0.00  0.99  0.00  0.00  0.00  0.06  0.00
  Cond4023                1.00   0.01  0.00  0.00  0.99  0.00  0.00  0.00  0.72  0.00
  Cond4183                1.00   0.01  0.00  0.00  0.99  0.00  0.00  0.00  0.00  0.00
  Cond4184                1.00   0.01  0.00  0.00  0.99  0.00  0.00  0.00  0.06  0.00
  Cond4185                1.00   0.01  0.00  0.00  0.99  0.00  0.00  0.00  0.07  0.00
  Cond4187                1.00   0.01  0.00  0.00  0.99  0.00  0.00  0.00  0.00  0.00
  Cond4278                1.00   0.01  0.00  0.00  0.99  0.00  0.00  0.00  0.99  0.00
  Cond4336                1.00   0.01  0.00  0.00  0.95  0.03  0.00  0.00  0.99  0.00
  Cond4337                1.00   0.01  0.00  0.00  0.99  0.00  0.00  0.00  0.99  0.00
  Cond4338                1.00   0.01  0.00  0.00  0.99  0.00  0.00  0.00  0.99  0.00
  Cond4354                1.00   0.01  0.00  0.00  0.99  0.00  0.00  0.00  0.03  0.00
  Cond4355                1.00   0.01  0.00  0.00  0.99  0.00  0.00  0.00  0.26  0.00
  Cond4356                1.00   0.01  0.00  0.00  0.99  0.00  0.00  0.00  0.06  0.00
  Cond4357                1.00   0.01  0.00  0.00  0.99  0.00  0.00  0.00  0.06  0.00
  Cond4417                1.00   0.01  0.00  0.00  0.99  0.00  0.00  0.00  0.99  0.00
  Cond4418                1.00   0.01  0.00  0.00  0.99  0.00  0.00  0.00  0.00  0.00
  Cond4419                1.00   0.01  0.00  0.00  0.99  0.00  0.00  0.00  0.99  0.00
  Cond4420                1.00   0.01  0.00  0.00  0.99  0.00  0.00  0.00  0.01  0.00
  Cond4421                1.00   0.01  0.00  0.00  0.99  0.00  0.00  0.00  0.00  0.00
  Cond4422                1.00   0.01  0.00  0.00  0.99  0.00  0.00  0.00  0.66  0.00
  Cond4423                1.00   0.01  0.00  0.00  0.99  0.00  0.00  0.00  0.75  0.00
  Cond4425                1.00   0.01  0.00  0.00  0.99  0.00  0.00  0.00  0.00  0.00
  Cond4426                1.00   0.01  0.00  0.00  0.99  0.00  0.00  0.00  0.00  0.00
  Cond4427                1.00   0.01  0.00  0.00  0.99  0.00  0.00  0.00  0.99  0.00
  Cond4428                1.00   0.01  0.00  0.00  0.99  0.00  0.00  0.00  0.58  0.00
  Cond4429                1.00   0.01  0.00  0.00  0.99  0.00  0.00  0.00  0.00  0.00
  Cond4430                1.00   0.01  0.00  0.00  0.99  0.00  0.00  0.00  0.98  0.00
  Cond4431                1.00   0.01  0.00  0.00  0.99  0.00  0.00  0.00  0.95  0.00
  Cond4432                1.00   0.01  0.00  0.00  0.99  0.00  0.00  0.00  0.47  0.00
  Cond4433                1.00   0.01  0.00  0.00  0.99  0.00  0.00  0.00  0.00  0.00
  Cond4434                1.00   0.01  0.00  0.00  0.99  0.00  0.00  0.00  0.00  0.00
  Cond4436                1.00   0.01  0.00  0.00  0.16  0.82  0.00  0.00  0.35  0.00
  Cond4437                1.00   0.01  0.00  0.00  0.00  0.99  0.00  0.00  0.00  0.00
  Cond4438                1.00   0.01  0.00  0.00  0.98  0.00  0.00  0.00  0.99  0.00
  Cond4446                1.00   0.01  0.00  0.00  0.00  0.99  0.00  0.00  0.00  0.00
  Cond4447                1.00   0.01  0.00  0.00  0.96  0.02  0.00  0.00  0.98  0.00
  Cond4448                1.00   0.01  0.00  0.00  0.99  0.00  0.00  0.00  0.96  0.00
  Cond4449                1.00   0.01  0.00  0.00  0.99  0.00  0.00  0.00  0.99  0.00
  Cond4501                1.00   0.01  0.00  0.00  0.99  0.00  0.00  0.00  0.02  0.00
  Cond4502                1.00   0.01  0.00  0.00  0.99  0.00  0.00  0.00  0.02  0.00
  Cond4503                1.00   0.01  0.00  0.00  0.99  0.00  0.00  0.00  0.11  0.00
  Cond4504                1.00   0.01  0.00  0.00  0.99  0.00  0.00  0.00  0.06  0.00
  Cond4505                1.00   0.01  0.00  0.00  0.99  0.00  0.00  0.00  0.07  0.00
  Cond4506                1.00   0.01  0.00  0.00  0.99  0.00  0.00  0.00  0.75  0.00
  Cond4507                1.00   0.01  0.00  0.00  0.99  0.00  0.00  0.00  0.10  0.00
  Cond4508                1.00   0.01  0.00  0.00  0.99  0.00  0.00  0.00  0.50  0.00
  Cond4509                1.00   0.01  0.00  0.00  0.99  0.00  0.00  0.00  0.01  0.00
  Cond4510                1.00   0.01  0.00  0.00  0.99  0.00  0.00  0.00  0.01  0.00
  Cond4511                1.00   0.01  0.00  0.00  0.99  0.00  0.00  0.00  0.65  0.00
  Cond4512                1.00   0.01  0.00  0.00  0.99  0.00  0.00  0.00  0.00  0.00
  Cond4513                1.00   0.01  0.00  0.00  0.99  0.00  0.00  0.00  0.80  0.00
  Cond4514                1.00   0.01  0.00  0.00  0.99  0.00  0.00  0.00  0.06  0.00
  Cond4515                1.00   0.01  0.00  0.00  0.99  0.00  0.00  0.00  0.14  0.00
  Cond4538                1.00   0.01  0.00  0.00  0.99  0.00  0.00  0.00  0.63  0.00
  Cond4566                1.00   0.01  0.00  0.00  0.99  0.00  0.00  0.00  0.06  0.00
  Cond4612                1.00   0.01  0.00  0.00  0.99  0.00  0.00  0.00  0.01  0.00
  Cond4613                1.00   0.01  0.00  0.00  0.99  0.00  0.00  0.00  0.07  0.00
  Cond5001                1.00   0.01  0.00  0.00  0.36  0.63  0.00  0.00  0.00  0.00
  Cond5073                1.00   0.01  0.00  0.00  0.99  0.00  0.00  0.00  0.61  0.00
  Cond2726                1.00   0.01  0.00  0.00  0.01  0.98  0.00  0.00  0.30  0.00
  
  
  *************************
  Conduit Surcharge Summary
  *************************
  
  ----------------------------------------------------------------------------
                                                           Hours        Hours 
                         --------- Hours Full --------   Above Full   Capacity
  Conduit                Both Ends  Upstream  Dnstream   Normal Flow   Limited
  ----------------------------------------------------------------------------
  Cond1520                    1.07      1.07      2.19      0.01         0.01
  Cond1525                    0.01      0.01      0.97      0.01         0.01
  Cond1526                    0.01      0.01      1.18      0.80         0.01
  Cond1527                    0.06      0.06      1.05      0.01         0.01
  Cond1614                    0.01      0.01      0.01      1.27         0.01
  Cond1631                    5.29      5.29      7.47      0.01         0.01
  Cond1632                    1.16      1.16      3.67      0.01         0.01
  Cond1653                    3.46      3.46      3.80      0.01         0.01
  Cond1654                    0.96      0.96      2.38      0.01         0.01
  Cond1656                    0.84      0.84      2.24      0.01         0.01
  Cond1657                    0.01      0.01      0.01      3.55         0.01
  Cond1664                    1.04      1.04      7.62      0.01         0.01
  Cond1715                    1.07      1.07      1.58      0.01         0.01
  Cond1728                    2.00      2.00      7.63      0.01         0.01
  Cond1734                    1.07      1.07      3.67      0.01         0.01
  Cond1735                    3.51      3.51      3.69      0.01         0.01
  Cond1795                    0.01      0.01      0.50      0.01         0.01
  Cond1836                    0.01      0.01      0.01      1.70         0.01
  Cond1866                    3.95      3.95     43.27      0.01         0.01
  Cond1867                    3.16      3.16      6.07      0.01         0.01
  Cond1868                    4.70      4.70      6.00      0.01         0.01
  Cond1870                    2.10      2.38      2.11     18.50         2.01
  Cond1894                    0.99      0.99      1.07      0.01         0.01
  Cond1896                    2.10      2.10      2.20      0.01         0.03
  Cond1898                    1.22      1.22      2.35      0.01         0.01
  Cond1899                    3.88      3.88      4.30      0.01         0.01
  Cond1908                    0.01      0.01      7.88      0.01         0.01
  Cond1925                    2.19      2.19      2.26      0.01         0.23
  Cond1958                    3.23      3.23     12.60      0.01         0.01
  Cond1960                    3.55      3.55     43.27      0.01         0.01
  Cond1992                    6.09      6.09      6.18      0.61         1.04
  Cond1993                    0.01      0.01      0.01      0.54         0.01
  Cond1994                    2.05      2.05      2.79      0.01         0.01
  Cond1995                    1.80      1.80      2.10      0.01         0.01
  Cond1997                    1.16      1.16      1.78      0.01         0.01
  Cond1998                    0.57      0.57      2.32      0.01         0.01
  Cond2073                    3.74      3.74      4.34      0.01         0.01
  Cond2079                    0.01      0.01      6.61      0.01         0.01
  Cond2113                    4.00      4.03      4.00     21.23         3.86
  Cond2114                    1.07      1.07      1.09      0.01         0.19
  Cond2132                    0.01      0.01      0.01      0.62         0.01
  Cond2141                    1.27      1.55      1.27     20.84         1.27
  Cond2144                    3.63      3.63      4.34      0.01         0.01
  Cond2145                    2.75      2.75      4.43      0.01         0.01
  Cond2148                    5.72      5.72      6.99      3.97         3.97
  Cond2179                    5.14      5.53      5.14     18.95         3.65
  Cond2212                    1.05      1.05     15.30      0.01         0.01
  Cond2214                    1.55      1.55      1.78      0.01         0.01
  Cond2227                    2.39      2.39      3.46      0.01         0.01
  Cond2228                    1.13      1.13      3.90      0.01         0.01
  Cond2230                    1.56      1.56      1.94      0.01         0.01
  Cond2231                    0.01      2.54      0.01     10.38         0.01
  Cond2288                    0.22      0.22      0.57      0.01         0.01
  Cond2290                    1.72      1.72      2.80      0.01         0.01
  Cond2295                    2.47      2.47      2.86      0.01         0.01
  Cond2296                    3.72      3.72     36.61      0.01         0.01
  Cond2298                    0.01      0.01      0.22      0.01         0.01
  Cond2318                    0.01      0.01      0.01      2.21         0.01
  Cond2321                    0.95      0.95      1.02      0.01         0.01
  Cond2358                    3.16      3.16      9.01      0.01         0.01
  Cond2392                    1.35      1.35      3.02      0.01         0.01
  Cond2396                    2.05      2.05     10.60      0.01         0.01
  Cond2397                    0.01      0.01      0.01      0.59         0.01
  Cond2441                    2.54      3.23      2.54     23.50         2.54
  Cond2442                    1.56      1.56      1.95      0.01         0.01
  Cond2452                    3.95      3.95      4.30      0.01         0.01
  Cond2491                    6.21      6.21      8.01      3.71         0.01
  Cond2533                    0.01      0.01      0.01      8.56         0.01
  Cond2542                    0.01      0.01      0.01      0.98         0.01
  Cond2544                    1.16      1.16      2.79      0.01         0.01
  Cond2593                    1.16      1.16      2.39      0.01         0.01
  Cond2595                    2.24      2.24      2.47      0.01         0.01
  Cond2596                    3.94      3.94      4.34      0.01         0.01
  Cond2597                    9.01      9.01     12.60      0.01         0.01
  Cond2604                    1.58      1.58      1.64      0.01         0.11
  Cond2611                    6.09      6.09      6.09      4.35         3.21
  Cond2612                    1.38      1.38      1.55      1.00         0.90
  Cond2613                    3.94      3.94      5.90      0.01         0.01
  Cond2614                    2.18      2.18      2.19      1.65         1.06
  Cond2615                    0.79      0.79      2.23      0.01         0.01
  Cond2629                    1.04      1.04      2.12      0.01         0.01
  Cond2633                    3.06      3.06     26.02      0.01         0.01
  Cond2635                    7.62      7.62      7.63      0.01         1.50
  Cond2636                    1.35      1.35      1.68      0.01         0.01
  Cond2727                    2.26      2.26      2.90      0.01         0.01
  Cond2784                    0.80      0.80      1.26      0.01         0.01
  Cond2807                    0.01      0.55      0.01      3.58         0.01
  Cond2814                    1.38      1.58      1.38     20.01         1.38
  Cond2826                    1.55      1.55      1.64      0.01         0.05
  Cond2851                    0.01      0.01      3.69      0.01         0.01
  Cond2854                    1.02      1.02      1.33      0.01         0.01
  Cond2890                    3.72      3.72      6.07      0.01         0.01
  Cond2891                    3.90      3.90      5.15      0.01         0.01
  Cond2892                    0.96      0.97      0.96     14.75         0.81
  Cond2951                    0.01      0.01      1.27      0.01         0.01
  Cond2953                    3.43      3.43      4.50      0.01         0.01
  Cond2954                   12.60     12.60     43.41      0.01         0.01
  Cond2956                    3.86      4.06      3.86     25.60         3.86
  Cond2974                    8.87      8.87     10.22      2.13         2.08
  Cond2976                    0.55      1.14      0.55      3.38         0.55
  Cond3006                    1.00      1.00      1.18      0.01         0.24
  Cond3007                    1.00      1.00      2.63      0.01         0.01
  Cond3025                    0.01      0.01      1.22      0.01         0.01
  Cond3026                    0.01      9.28      0.01     14.45         0.01
  Cond3085                    0.50      0.50      0.90      0.01         0.01
  Cond3126                    3.02      3.02      3.06      0.01         0.24
  Cond3131                    2.19      2.19      3.06      0.01         0.01
  Cond3150                    0.01      0.01      1.10      0.01         0.01
  Cond3185                    3.93      3.94      3.94      3.88         3.52
  Cond3189                    1.00      1.00      3.94      0.01         0.01
  Cond3190                   15.30     15.30     43.41      0.01         0.01
  Cond3191                    2.15      2.15      2.18      0.05         0.78
  Cond3233                    1.74      1.74      2.91      0.01         0.01
  Cond3237                    1.13      1.13      1.62      0.01         0.01
  Cond3242                    3.55      3.55      3.55      0.01         1.30
  Cond3297                    1.64      1.64      4.06      0.01         0.01
  Cond3298                    2.90      2.90      3.52      0.01         0.01
  Cond3315                    0.01      0.01      0.01     12.75         0.01
  Cond3316                    0.01      0.01      0.01     25.52         0.01
  Cond3317                    3.62      3.62      4.03      0.01         0.01
  Cond3359                    1.27      1.27      1.98      0.01         0.01
  Cond3362                    2.04      2.05      2.05      0.01         1.09
  Cond3363                    3.88      3.88      4.03      0.01         0.01
  Cond3364                    2.47      2.47      2.83      0.01         0.01
  Cond3440                    2.20      2.20      3.43      0.01         0.01
  Cond3455                    6.00      6.00      6.09      4.30         3.84
  Cond3474                    0.01      0.01      0.01      0.86         0.01
  Cond3497                    0.01      0.01      0.01     12.90         0.01
  Cond3544                    5.94      5.94      7.47      2.08         0.01
  Cond3577                    1.00      1.00      2.23      0.01         0.01
  Cond3585                    3.68      3.69      3.68      3.82         3.27
  Cond3586                    1.26      1.26      1.80      0.01         0.01
  Cond3596                    1.05      1.05      1.07      0.01         0.32
  Cond3597                    0.01      0.01      0.01      0.47         0.01
  Cond3598                    1.87      1.87      1.98      0.01         0.01
  Cond3628                    3.84      3.84      4.70      0.01         0.01
  Cond3665                    0.90      0.90      0.99      0.01         0.01
  Cond3666                    3.68      3.68      4.03      0.01         0.01
  Cond3733                    0.01      0.01      0.01     15.86         0.01
  Cond3734                    1.68      1.68      1.68      0.01         0.75
  Cond3745                    3.06      3.06     12.72      0.01         0.01
  Cond3750                    0.01      0.01      0.01      0.71         0.01
  Cond3751                    3.52      3.52      3.63      0.01         0.09
  Cond3760                    1.33      1.33      1.68      0.01         0.01
  Cond3796                    1.58      1.98      1.58     25.42         1.58
  Cond3797                    6.06      6.07      6.07      0.01         1.61
  Cond3798                    2.86      2.86      3.43      0.01         0.01
  Cond3897                    0.01      0.01      1.10      0.01         0.01
  Cond3956                    1.94      1.94      3.51      0.01         0.01
  Cond3986                    2.04      2.05      2.05      0.01         1.06
  Cond3987                    1.87      1.87      2.83      0.01         0.01
  Cond3999                    1.14      1.27      1.14      3.19         1.14
  Cond4183                   12.33     12.33     15.30      2.64         2.61
  Cond4184                   10.22     10.22     10.86      2.25         2.08
  Cond4185                   10.86     10.86     12.33      2.46         2.38
  Cond4187                    1.98      2.11      1.98     18.80         1.97
  Cond4336                    0.01      0.01     11.72      0.01         0.01
  Cond4338                    0.01      0.01     11.72      0.01         0.01
  Cond4354                    3.79      3.80      3.80      4.59         2.16
  Cond4355                    3.80      3.80      3.91      0.01         0.01
  Cond4356                    3.91      3.91      3.95      0.01         0.32
  Cond4357                    3.95      3.95      4.02      0.01         0.01
  Cond4433                    0.01      0.01      0.01      2.13         0.01
  Cond4438                    0.01      0.01      1.92      0.01         0.01
  Cond4501                    5.72      5.94      5.72      8.48         5.70
  Cond4507                    5.87      5.91      6.11      0.04         0.36
  Cond4508                    5.13      5.15      5.49      0.01         0.01
  Cond4509                    6.97      6.97      7.57      0.01         0.02
  Cond4510                    7.47      7.57      7.47     15.50         5.96
  Cond4511                    5.30      5.30      6.28      0.01         0.01
  Cond4512                    5.00      5.00      5.30      0.01         0.01
  Cond4513                    4.43      4.43      5.00      0.01         0.01
  Cond4514                    6.11      6.11      6.97      0.01         0.01
  Cond4515                    5.46      5.49      5.91      0.01         0.17
  Cond4538                    0.01      0.01      0.53      0.01         0.01
  Cond4566                    1.64      1.64      2.05      0.01         0.01
  Cond4612                    1.29      1.29      1.60      0.01         0.03
  Cond4613                    0.79      0.79      1.29      0.01         0.01
  Cond5073                    3.86      3.86      8.87      0.01         0.01
  

  Analysis begun on:  Thu Jun 20 21:48:28 2024
  Analysis ended on:  Thu Jun 20 21:48:58 2024
  Total elapsed time: 00:00:30